data/pglib_opf_case6515_rte_storage.m
%%%%%%%%%%%%%%%%%%%%%%%%%%%%%%%%%%%%%%%%%%%%%%%%%%%%%%%%%%%%%%%%%%%%%%%%%%%
%%%%                                                                  %%%%%
%%%%    IEEE PES Power Grid Library - Optimal Power Flow - v23.07     %%%%%
%%%%          (https://github.com/power-grid-lib/pglib-opf)           %%%%%
%%%%               Benchmark Group - Typical Operations               %%%%%
%%%%                         23 - July - 2023                         %%%%%
%%%%                                                                  %%%%%
%%%%%%%%%%%%%%%%%%%%%%%%%%%%%%%%%%%%%%%%%%%%%%%%%%%%%%%%%%%%%%%%%%%%%%%%%%%
%
%CASE6515RTE
%   AC Power flow data for French system.
%   Please see CASEFORMAT for details on the case file format.
%
%   This case accurately represents the size and complexity of French
%   very high voltage and high voltage transmission network.
%   These data are snapshots of French VHV+HV grid in 2013.
%   These data can be used to validate mathematical methods and tools.
%   These data should NOT be used for operation
%   nor planning of the French or European grids.
%
%   When publishing results using this data, please cite:
%     C. Josz, S. Fliscounakis, J. Maeght, and P. Panciatici,
%     "AC Power Flow Data in MATPOWER and QCQP Format: iTesla, RTE Snapshots, and PEGASE"
%     http://arxiv.org/abs/1603.01533
%
%   Contacts (primary contact for this file : Jean Maeght):
%   Cédric Josz, Stéphane Fliscounakis, Jean Maeght, Patrick Panciatici
%   firstname.lastname@rte-france.com
%   Réseau de Transport d'Electricité (French Transmission System Operator)
%   Département Expertise Système, Immeuble "Le Colbert"
%   9 rue de la Porte de Buc, 78000 Versailles Cedex, France
%   March 4th, 2016
%
%   Copyright (c) 2016 by Cédric Josz, Stéphane Fliscounakis, Jean Maeght,
%   and Patrick Panciatici
%   Licensed under the Creative Commons Attribution 4.0 International license,
%   http://creativecommons.org/licenses/by/4.0/
%
% Modified to have additional storage capacity and increased gencost
function mpc = pglib_opf_case6515_rte
mpc.version = '2';
mpc.baseMVA = 100.0;

%% bus data
%	bus_i	type	Pd	Qd	Gs	Bs	area	Vm	Va	baseKV	zone	Vmax	Vmin
mpc.bus = [
	1	 1	 0.0	 0.0	 0.0	 0.0	 1	    0.94444	    0.00000	 45.0	 1	    1.00000	    0.88889;
	2	 1	 0.0	 0.0	 0.0	 0.0	 1	    1.00000	    0.00000	 63.0	 1	    1.06349	    0.93651;
	3	 1	 14.8	 3.8	 0.0	 0.0	 1	    1.01588	    0.00000	 63.0	 1	    1.07937	    0.95238;
	4	 1	 49.6	 2.8	 0.0	 0.0	 1	    1.01111	    0.00000	 90.0	 1	    1.08889	    0.93333;
	5	 1	 12.9	 0.9	 0.0	 0.0	 1	    1.00794	    0.00000	 63.0	 1	    1.06349	    0.95238;
	6	 1	 13.0	 5.3	 0.0	 0.0	 1	    1.00000	    0.00000	 63.0	 1	    1.07937	    0.92063;
	7	 1	 2.3	 0.2	 0.0	 0.0	 1	    1.00000	    0.00000	 63.0	 1	    1.07937	    0.92063;
	8	 1	 15.8	 -0.3	 0.0	 0.0	 1	    0.98889	    0.00000	 225.0	 1	    1.08889	    0.88889;
	9	 1	 14.9	 0.0	 0.0	 0.0	 1	    1.00000	    0.00000	 63.0	 1	    1.06349	    0.93651;
	10	 1	 0.0	 0.0	 0.0	 0.0	 1	    1.00000	    0.00000	 90.0	 1	    1.07778	    0.92222;
	11	 1	 33.2	 4.9	 0.0	 0.0	 1	    1.00000	    0.00000	 90.0	 1	    1.07778	    0.92222;
	12	 1	 0.0	 0.0	 0.0	 0.0	 1	    1.01588	    0.00000	 63.0	 1	    1.07937	    0.95238;
	13	 1	 0.0	 0.0	 0.0	 0.0	 1	    1.07767	    0.00000	 380.0	 1	    1.10263	    1.05271;
	14	 1	 63.2	 13.3	 0.0	 30.4	 1	    1.02778	    0.00000	 90.0	 1	    1.07778	    0.97778;
	15	 1	 0.0	 0.0	 0.0	 0.0	 1	    1.00000	    0.00000	 63.0	 1	    1.07937	    0.92063;
	16	 1	 13.9	 1.9	 0.0	 0.0	 1	    1.00000	    0.00000	 63.0	 1	    1.07937	    0.92063;
	17	 1	 10.9	 0.1	 0.0	 0.0	 1	    1.02222	    0.00000	 90.0	 1	    1.06667	    0.97778;
	18	 1	 0.0	 0.0	 0.0	 0.0	 1	    0.94444	    0.00000	 45.0	 1	    1.00000	    0.88889;
	19	 1	 1.0	 0.0	 0.0	 0.0	 1	    1.00000	    0.00000	 63.0	 1	    1.06349	    0.93651;
	20	 1	 5.6	 -18.0	 0.0	 0.0	 1	    0.94444	    0.00000	 45.0	 1	    1.00000	    0.88889;
	21	 1	 7.6	 -1.6	 0.0	 0.0	 1	    1.02222	    0.00000	 90.0	 1	    1.06667	    0.97778;
	22	 1	 18.5	 1.0	 0.0	 0.0	 1	    1.01588	    0.00000	 63.0	 1	    1.07937	    0.95238;
	23	 1	 22.4	 2.2	 0.0	 0.0	 1	    1.00000	    0.00000	 63.0	 1	    1.06349	    0.93651;
	24	 1	 17.0	 -1.5	 0.0	 0.0	 1	    1.03333	    0.00000	 90.0	 1	    1.11111	    0.95556;
	25	 1	 54.7	 -1.1	 0.0	 0.0	 1	    1.02222	    0.00000	 90.0	 1	    1.10000	    0.94444;
	26	 1	 15.1	 10.6	 0.0	 0.0	 1	    1.02222	    0.00000	 90.0	 1	    1.06667	    0.97778;
	27	 1	 0.0	 0.0	 0.0	 0.0	 1	    1.04444	    0.00000	 225.0	 1	    1.08444	    1.00444;
	28	 1	 0.9	 -0.2	 0.0	 0.0	 1	    1.01588	    0.00000	 63.0	 1	    1.07937	    0.95238;
	29	 1	 76.5	 9.4	 0.0	 0.0	 1	    1.01587	    0.00000	 63.0	 1	    1.06349	    0.96825;
	30	 1	 39.9	 3.5	 0.0	 0.0	 1	    1.01111	    0.00000	 90.0	 1	    1.08889	    0.93333;
	31	 1	 0.0	 0.0	 0.0	 0.0	 1	    1.00000	    0.00000	 63.0	 1	    1.06349	    0.93651;
	32	 1	 0.0	 0.0	 0.0	 0.0	 1	    1.00334	    0.00000	 150.0	 1	    1.10667	    0.90000;
	33	 1	 0.0	 0.0	 0.0	 0.0	 1	    1.01111	    0.00000	 225.0	 1	    1.08889	    0.93333;
	34	 1	 0.0	 0.0	 0.0	 0.0	 1	    1.01111	    0.00000	 225.0	 1	    1.08889	    0.93333;
	35	 1	 0.0	 0.0	 0.0	 0.0	 1	    1.07237	    0.00000	 380.0	 1	    1.10526	    1.03947;
	36	 1	 0.0	 0.0	 0.0	 0.0	 1	    1.07237	    0.00000	 380.0	 1	    1.10526	    1.03947;
	37	 1	 -2.7	 3.0	 0.0	 0.0	 1	    1.00000	    0.00000	 63.0	 1	    1.07937	    0.92063;
	38	 1	 5.0	 -1.0	 0.0	 0.0	 1	    1.01587	    0.00000	 63.0	 1	    1.09524	    0.93651;
	39	 1	 43.6	 -2.9	 0.0	 0.0	 1	    1.02778	    0.00000	 90.0	 1	    1.07778	    0.97778;
	40	 1	 38.1	 4.1	 0.0	 0.0	 1	    1.02778	    0.00000	 90.0	 1	    1.07778	    0.97778;
	41	 1	 0.0	 0.0	 0.0	 0.0	 1	    1.04666	    0.00000	 225.0	 1	    1.08889	    1.00444;
	42	 1	 0.0	 0.0	 0.0	 0.0	 1	    1.04169	    0.00000	 63.0	 1	    1.13099	    0.95238;
	43	 1	 3.2	 2.7	 0.0	 0.0	 1	    1.02778	    0.00000	 90.0	 1	    1.07778	    0.97778;
	44	 1	 13.3	 0.1	 0.0	 0.0	 1	    1.00794	    0.00000	 63.0	 1	    1.06349	    0.95238;
	45	 1	 3.8	 1.6	 0.0	 0.0	 1	    1.02222	    0.00000	 90.0	 1	    1.06667	    0.97778;
	46	 1	 0.0	 0.0	 0.0	 0.0	 1	    1.00000	    0.00000	 63.0	 1	    1.06349	    0.93651;
	47	 2	 0.0	 0.0	 0.0	 0.0	 1	    1.00000	    0.00000	 63.0	 1	    1.06349	    0.93651;
	48	 1	 40.4	 5.6	 0.0	 0.0	 1	    1.00000	    0.00000	 90.0	 1	    1.07778	    0.92222;
	49	 1	 9.8	 -1.9	 0.0	 0.0	 1	    1.00000	    0.00000	 63.0	 1	    1.06349	    0.93651;
	50	 1	 0.0	 0.0	 0.0	 0.0	 1	    1.00289	    0.00000	 63.0	 1	    1.06927	    0.93651;
	51	 1	 0.0	 0.0	 0.0	 0.0	 1	    1.01111	    0.00000	 225.0	 1	    1.08889	    0.93333;
	52	 1	 6.5	 2.9	 0.0	 0.0	 1	    1.02222	    0.00000	 90.0	 1	    1.06667	    0.97778;
	53	 1	 0.0	 -1.3	 0.0	 0.0	 1	    1.00000	    0.00000	 63.0	 1	    1.04762	    0.95238;
	54	 1	 0.3	 -0.3	 0.0	 0.0	 1	    1.02222	    0.00000	 90.0	 1	    1.06667	    0.97778;
	55	 1	 50.9	 12.3	 0.0	 0.0	 1	    1.04666	    0.00000	 225.0	 1	    1.08889	    1.00444;
	56	 1	 75.5	 20.5	 0.0	 0.0	 1	    1.04666	    0.00000	 225.0	 1	    1.08889	    1.00444;
	57	 2	 0.0	 0.0	 0.0	 0.0	 1	    1.00000	    0.00000	 63.0	 1	    1.07937	    0.92063;
	58	 1	 154.0	 36.4	 0.0	 0.0	 1	    1.04666	    0.00000	 225.0	 1	    1.08889	    1.00444;
	59	 1	 5.0	 1.0	 0.0	 0.0	 1	    1.01588	    0.00000	 63.0	 1	    1.07937	    0.95238;
	60	 1	 0.0	 0.0	 0.0	 0.0	 1	    1.01588	    0.00000	 63.0	 1	    1.07937	    0.95238;
	61	 1	 46.3	 11.9	 0.0	 0.0	 1	    1.01588	    0.00000	 63.0	 1	    1.07937	    0.95238;
	62	 1	 0.0	 0.0	 0.0	 0.0	 1	    1.01588	    0.00000	 63.0	 1	    1.07937	    0.95238;
	63	 1	 16.8	 2.9	 0.0	 0.0	 1	    1.01588	    0.00000	 63.0	 1	    1.07937	    0.95238;
	64	 1	 67.3	 7.1	 0.0	 0.0	 1	    0.98889	    0.00000	 225.0	 1	    1.08889	    0.88889;
	65	 1	 12.0	 2.8	 0.0	 0.0	 1	    1.01588	    0.00000	 63.0	 1	    1.07937	    0.95238;
	66	 1	 13.0	 -6.4	 0.0	 0.0	 1	    1.00000	    0.00000	 63.0	 1	    1.06349	    0.93651;
	67	 1	 1.0	 0.0	 0.0	 0.0	 1	    1.00000	    0.00000	 63.0	 1	    1.07937	    0.92063;
	68	 1	 53.1	 1.1	 0.0	 0.0	 1	    1.00000	    0.00000	 63.0	 1	    1.06349	    0.93651;
	69	 1	 20.8	 1.3	 0.0	 0.0	 1	    1.00794	    0.00000	 63.0	 1	    1.06349	    0.95238;
	70	 1	 10.6	 4.2	 0.0	 0.0	 1	    1.01588	    0.00000	 63.0	 1	    1.07937	    0.95238;
	71	 1	 69.4	 17.5	 0.0	 0.0	 1	    1.00000	    0.00000	 63.0	 1	    1.04762	    0.95238;
	72	 1	 0.0	 0.0	 0.0	 0.0	 1	    1.04666	    0.00000	 225.0	 1	    1.08889	    1.00444;
	73	 1	 0.0	 0.0	 0.0	 0.0	 1	    1.04666	    0.00000	 225.0	 1	    1.08889	    1.00444;
	74	 1	 58.8	 -5.0	 0.0	 0.0	 1	    0.98889	    0.00000	 225.0	 1	    1.08889	    0.88889;
	75	 1	 25.2	 1.9	 0.0	 0.0	 1	    1.02222	    0.00000	 90.0	 1	    1.06667	    0.97778;
	76	 1	 5.9	 -2.1	 0.0	 0.0	 1	    1.03778	    0.00000	 225.0	 1	    1.08889	    0.98667;
	77	 1	 43.7	 0.4	 0.0	 0.0	 1	    1.00000	    0.00000	 63.0	 1	    1.06349	    0.93651;
	78	 1	 0.0	 0.0	 0.0	 0.0	 1	    1.00000	    0.00000	 63.0	 1	    1.07937	    0.92063;
	79	 1	 0.0	 0.0	 0.0	 0.0	 1	    1.00000	    0.00000	 63.0	 1	    1.04762	    0.95238;
	80	 1	 32.4	 10.5	 0.0	 0.0	 1	    1.04666	    0.00000	 225.0	 1	    1.08889	    1.00444;
	81	 1	 32.4	 9.1	 0.0	 0.0	 1	    1.04666	    0.00000	 225.0	 1	    1.08889	    1.00444;
	82	 1	 11.3	 0.3	 0.0	 0.0	 1	    1.00000	    0.00000	 63.0	 1	    1.06349	    0.93651;
	83	 1	 79.0	 24.8	 0.0	 0.0	 1	    1.04666	    0.00000	 225.0	 1	    1.08889	    1.00444;
	84	 1	 -0.1	 0.4	 0.0	 0.0	 1	    1.00000	    0.00000	 63.0	 1	    1.06349	    0.93651;
	85	 1	 0.7	 -1.5	 0.0	 0.0	 1	    1.00000	    0.00000	 63.0	 1	    1.06349	    0.93651;
	86	 1	 48.8	 5.2	 0.0	 0.0	 1	    1.02222	    0.00000	 90.0	 1	    1.06667	    0.97778;
	87	 1	 0.0	 0.0	 0.0	 0.0	 1	    1.01588	    0.00000	 63.0	 1	    1.07937	    0.95238;
	88	 1	 14.8	 -1.2	 0.0	 0.0	 1	    1.00000	    0.00000	 63.0	 1	    1.06349	    0.93651;
	89	 1	 26.2	 0.3	 0.0	 0.0	 1	    1.02778	    0.00000	 90.0	 1	    1.07778	    0.97778;
	90	 1	 0.2	 -2.3	 0.0	 0.0	 1	    0.94444	    0.00000	 45.0	 1	    1.00000	    0.88889;
	91	 1	 0.0	 0.0	 0.0	 0.0	 1	    0.94444	    0.00000	 45.0	 1	    1.00000	    0.88889;
	92	 1	 31.8	 1.1	 0.0	 0.0	 1	    1.01587	    0.00000	 63.0	 1	    1.06349	    0.96825;
	93	 1	 2.0	 -2.8	 0.0	 0.0	 1	    0.94444	    0.00000	 45.0	 1	    1.00000	    0.88889;
	94	 1	 18.2	 -4.0	 0.0	 0.0	 1	    1.02222	    0.00000	 90.0	 1	    1.06667	    0.97778;
	95	 1	 57.2	 9.4	 0.0	 0.0	 1	    1.02222	    0.00000	 90.0	 1	    1.06667	    0.97778;
	96	 1	 0.9	 -0.2	 0.0	 0.0	 1	    1.00000	    0.00000	 63.0	 1	    1.06349	    0.93651;
	97	 1	 57.7	 3.8	 0.0	 0.0	 1	    1.00000	    0.00000	 63.0	 1	    1.07937	    0.92063;
	98	 1	 9.5	 1.0	 0.0	 0.0	 1	    1.01588	    0.00000	 63.0	 1	    1.07937	    0.95238;
	99	 1	 35.8	 5.9	 0.0	 0.0	 1	    1.01588	    0.00000	 63.0	 1	    1.07937	    0.95238;
	100	 1	 63.0	 7.8	 0.0	 0.0	 1	    1.00000	    0.00000	 63.0	 1	    1.06349	    0.93651;
	101	 1	 17.3	 -0.8	 0.0	 0.0	 1	    1.00000	    0.00000	 63.0	 1	    1.06349	    0.93651;
	102	 2	 0.0	 0.0	 0.0	 0.0	 1	    1.01588	    0.00000	 63.0	 1	    1.07937	    0.95238;
	103	 1	 12.6	 -1.2	 0.0	 0.0	 1	    1.01588	    0.00000	 63.0	 1	    1.07937	    0.95238;
	104	 1	 0.0	 0.0	 0.0	 0.0	 1	    1.03778	    0.00000	 225.0	 1	    1.08889	    0.98667;
	105	 1	 36.9	 2.2	 0.0	 0.0	 1	    0.98889	    0.00000	 225.0	 1	    1.08889	    0.88889;
	106	 1	 58.2	 10.7	 0.0	 0.0	 1	    1.02222	    0.00000	 90.0	 1	    1.10000	    0.94444;
	107	 1	 107.0	 14.3	 0.0	 0.0	 1	    1.04666	    0.00000	 225.0	 1	    1.08444	    1.00889;
	108	 1	 12.2	 -2.4	 0.0	 0.0	 1	    1.02778	    0.00000	 90.0	 1	    1.07778	    0.97778;
	109	 1	 67.8	 8.7	 0.0	 0.0	 1	    1.00000	    0.00000	 63.0	 1	    1.06349	    0.93651;
	110	 1	 0.0	 0.0	 0.0	 0.0	 1	    1.01111	    0.00000	 225.0	 1	    1.08889	    0.93333;
	111	 1	 38.7	 -7.5	 0.0	 0.0	 1	    1.01587	    0.00000	 63.0	 1	    1.06349	    0.96825;
	112	 1	 0.0	 0.0	 0.0	 0.0	 1	    1.00000	    0.00000	 63.0	 1	    1.04762	    0.95238;
	113	 1	 0.0	 0.0	 0.0	 0.0	 1	    1.04666	    0.00000	 225.0	 1	    1.08889	    1.00444;
	114	 1	 13.4	 1.1	 0.0	 0.0	 1	    1.00000	    0.00000	 63.0	 1	    1.06349	    0.93651;
	115	 1	 0.0	 0.0	 0.0	 0.0	 1	    1.07895	    0.00000	 380.0	 1	    1.10526	    1.05263;
	116	 1	 0.0	 0.0	 0.0	 0.0	 1	    1.07895	    0.00000	 380.0	 1	    1.10526	    1.05263;
	117	 1	 14.9	 0.2	 0.0	 0.0	 1	    1.01588	    0.00000	 63.0	 1	    1.07937	    0.95238;
	118	 1	 2.0	 0.7	 0.0	 0.0	 1	    1.02222	    0.00000	 90.0	 1	    1.06667	    0.97778;
	119	 1	 40.6	 6.9	 0.0	 0.0	 1	    1.00000	    0.00000	 63.0	 1	    1.06349	    0.93651;
	120	 1	 22.0	 -2.3	 0.0	 0.0	 1	    1.00000	    0.00000	 63.0	 1	    1.06349	    0.93651;
	121	 1	 20.8	 1.4	 0.0	 0.0	 1	    1.00000	    0.00000	 63.0	 1	    1.07937	    0.92063;
	122	 2	 0.0	 0.0	 0.0	 0.0	 1	    1.01588	    0.00000	 63.0	 1	    1.07937	    0.95238;
	123	 1	 12.0	 4.6	 0.0	 0.0	 1	    1.01588	    0.00000	 63.0	 1	    1.07937	    0.95238;
	124	 1	 8.0	 -0.4	 0.0	 0.0	 1	    1.02222	    0.00000	 90.0	 1	    1.06667	    0.97778;
	125	 1	 11.1	 0.4	 0.0	 0.0	 1	    1.01588	    0.00000	 63.0	 1	    1.07937	    0.95238;
	126	 1	 0.2	 0.8	 0.0	 0.0	 1	    1.00000	    0.00000	 63.0	 1	    1.06349	    0.93651;
	127	 1	 14.7	 2.7	 0.0	 0.0	 1	    1.00000	    0.00000	 63.0	 1	    1.04762	    0.95238;
	128	 1	 13.8	 7.2	 0.0	 0.0	 1	    1.01587	    0.00000	 63.0	 1	    1.06349	    0.96825;
	129	 1	 19.1	 10.8	 0.0	 0.0	 1	    1.01587	    0.00000	 63.0	 1	    1.06349	    0.96825;
	130	 1	 0.0	 0.0	 0.0	 0.0	 1	    1.04666	    0.00000	 225.0	 1	    1.08444	    1.00889;
	131	 1	 119.3	 12.0	 0.0	 0.0	 1	    1.04666	    0.00000	 225.0	 1	    1.08444	    1.00889;
	132	 2	 9.4	 0.0	 0.0	 0.0	 1	    1.00000	    0.00000	 90.0	 1	    1.07778	    0.92222;
	133	 1	 2.7	 0.4	 0.0	 0.0	 1	    1.00000	    0.00000	 63.0	 1	    1.04762	    0.95238;
	134	 1	 101.1	 27.4	 0.0	 0.0	 1	    1.04666	    0.00000	 225.0	 1	    1.08889	    1.00444;
	135	 1	 0.0	 0.0	 0.0	 0.0	 1	    1.04666	    0.00000	 225.0	 1	    1.08889	    1.00444;
	136	 1	 23.9	 1.4	 0.0	 0.0	 1	    1.02778	    0.00000	 90.0	 1	    1.07778	    0.97778;
	137	 2	 8.7	 -3.0	 0.0	 0.0	 1	    1.01587	    0.00000	 63.0	 1	    1.06349	    0.96825;
	138	 1	 0.0	 0.0	 0.0	 0.0	 1	    1.02333	    0.00000	 150.0	 1	    1.08000	    0.96667;
	139	 1	 8.0	 7.1	 0.0	 0.0	 1	    1.00000	    0.00000	 63.0	 1	    1.07937	    0.92063;
	140	 1	 0.0	 0.0	 0.0	 80.0	 1	    1.04445	    0.00000	 225.0	 1	    1.08889	    1.00000;
	141	 1	 0.0	 0.0	 0.0	 0.0	 1	    1.07895	    0.00000	 380.0	 1	    1.10526	    1.05263;
	142	 1	 22.4	 7.4	 0.0	 0.0	 1	    1.01588	    0.00000	 63.0	 1	    1.07937	    0.95238;
	143	 1	 0.0	 0.0	 0.0	 0.0	 1	    1.03778	    0.00000	 225.0	 1	    1.08889	    0.98667;
	144	 1	 16.0	 5.0	 0.0	 0.0	 1	    1.03333	    0.00000	 90.0	 1	    1.11111	    0.95556;
	145	 1	 23.4	 9.0	 0.0	 0.0	 1	    1.02889	    0.00000	 225.0	 1	    1.08889	    0.96889;
	146	 1	 0.0	 0.0	 0.0	 0.0	 1	    1.05263	    0.00000	 380.0	 1	    1.10526	    1.00000;
	147	 1	 30.0	 5.5	 0.0	 0.0	 1	    1.00000	    0.00000	 63.0	 1	    1.06349	    0.93651;
	148	 1	 6.6	 1.2	 0.0	 0.0	 1	    1.00000	    0.00000	 63.0	 1	    1.06349	    0.93651;
	149	 1	 16.9	 4.1	 0.0	 0.0	 1	    1.02222	    0.00000	 90.0	 1	    1.06667	    0.97778;
	150	 1	 48.5	 3.2	 0.0	 0.0	 1	    1.00000	    0.00000	 63.0	 1	    1.06349	    0.93651;
	151	 1	 0.0	 0.0	 0.0	 0.0	 1	    1.01587	    0.00000	 63.0	 1	    1.06349	    0.96825;
	152	 1	 45.3	 12.0	 0.0	 7.7	 1	    1.01587	    0.00000	 63.0	 1	    1.06349	    0.96825;
	153	 1	 27.3	 -5.5	 0.0	 0.0	 1	    1.00000	    0.00000	 63.0	 1	    1.06349	    0.93651;
	154	 1	 0.0	 0.0	 0.0	 0.0	 1	    1.01111	    0.00000	 225.0	 1	    1.08889	    0.93333;
	155	 2	 0.0	 0.0	 0.0	 0.0	 1	    1.00000	    0.00000	 63.0	 1	    1.07937	    0.92063;
	156	 1	 0.0	 0.0	 0.0	 0.0	 1	    1.01587	    0.00000	 63.0	 1	    1.06349	    0.96825;
	157	 1	 0.0	 -2.2	 0.0	 0.0	 1	    0.94444	    0.00000	 45.0	 1	    1.00000	    0.88889;
	158	 2	 0.0	 0.0	 0.0	 0.0	 1	    0.94444	    0.00000	 45.0	 1	    1.00000	    0.88889;
	159	 1	 0.0	 0.0	 0.0	 0.0	 1	    1.00000	    0.00000	 63.0	 1	    1.06349	    0.93651;
	160	 1	 41.7	 5.9	 0.0	 0.0	 1	    0.98889	    0.00000	 225.0	 1	    1.08889	    0.88889;
	161	 1	 43.7	 10.0	 0.0	 0.0	 1	    0.98889	    0.00000	 225.0	 1	    1.08889	    0.88889;
	162	 1	 -0.3	 -1.6	 0.0	 0.0	 1	    1.02222	    0.00000	 90.0	 1	    1.06667	    0.97778;
	163	 1	 0.0	 0.0	 0.0	 0.0	 1	    1.01588	    0.00000	 63.0	 1	    1.07937	    0.95238;
	164	 1	 0.0	 0.0	 0.0	 0.0	 1	    1.01588	    0.00000	 63.0	 1	    1.07937	    0.95238;
	165	 1	 16.5	 14.6	 0.0	 0.0	 1	    0.97500	    0.00000	 20.0	 1	    1.15000	    0.80000;
	166	 1	 13.3	 3.2	 0.0	 0.0	 1	    1.02222	    0.00000	 90.0	 1	    1.06667	    0.97778;
	167	 1	 17.8	 -0.8	 0.0	 0.0	 1	    1.02222	    0.00000	 90.0	 1	    1.06667	    0.97778;
	168	 1	 0.0	 0.0	 0.0	 0.0	 1	    1.04444	    0.00000	 225.0	 1	    1.08444	    1.00444;
	169	 1	 9.9	 -0.9	 0.0	 0.0	 1	    1.02222	    0.00000	 90.0	 1	    1.06667	    0.97778;
	170	 1	 79.8	 13.5	 0.0	 0.0	 1	    1.02778	    0.00000	 90.0	 1	    1.07778	    0.97778;
	171	 1	 28.0	 0.8	 0.0	 30.0	 1	    1.02778	    0.00000	 90.0	 1	    1.07778	    0.97778;
	172	 1	 0.0	 0.0	 0.0	 0.0	 1	    1.04666	    0.00000	 225.0	 1	    1.08889	    1.00444;
	173	 1	 28.5	 8.0	 0.0	 0.0	 1	    1.01111	    0.00000	 90.0	 1	    1.08889	    0.93333;
	174	 1	 59.7	 11.6	 0.0	 0.0	 1	    1.03333	    0.00000	 90.0	 1	    1.11111	    0.95556;
	175	 1	 0.0	 0.0	 0.0	 0.0	 1	    1.00000	    0.00000	 63.0	 1	    1.07937	    0.92063;
	176	 2	 0.0	 0.0	 0.0	 0.0	 1	    1.00000	    0.00000	 150.0	 1	    1.10000	    0.90000;
	177	 1	 0.0	 0.0	 0.0	 0.0	 1	    1.04666	    0.00000	 225.0	 1	    1.08889	    1.00444;
	178	 1	 0.0	 0.0	 0.0	 0.0	 1	    1.04666	    0.00000	 225.0	 1	    1.08889	    1.00444;
	179	 1	 0.0	 0.0	 0.0	 0.0	 1	    1.00000	    0.00000	 63.0	 1	    1.04762	    0.95238;
	180	 1	 0.0	 0.0	 0.0	 0.0	 1	    1.04666	    0.00000	 225.0	 1	    1.08889	    1.00444;
	181	 1	 12.7	 -5.3	 0.0	 0.0	 1	    1.00000	    0.00000	 63.0	 1	    1.07937	    0.92063;
	182	 1	 16.0	 3.1	 0.0	 0.0	 1	    1.00000	    0.00000	 63.0	 1	    1.06349	    0.93651;
	183	 1	 5.5	 -1.7	 0.0	 0.0	 1	    1.01588	    0.00000	 63.0	 1	    1.07937	    0.95238;
	184	 1	 5.0	 1.4	 0.0	 0.0	 1	    1.02778	    0.00000	 90.0	 1	    1.07778	    0.97778;
	185	 1	 30.6	 2.7	 0.0	 0.0	 1	    1.01588	    0.00000	 63.0	 1	    1.07937	    0.95238;
	186	 1	 1.2	 0.2	 0.0	 0.0	 1	    1.02222	    0.00000	 90.0	 1	    1.06667	    0.97778;
	187	 2	 0.0	 0.0	 0.0	 0.0	 1	    1.00000	    0.00000	 63.0	 1	    1.07937	    0.92063;
	188	 1	 0.0	 0.0	 0.0	 0.0	 1	    1.00969	    0.00000	 63.0	 1	    1.09875	    0.92063;
	189	 1	 16.8	 1.8	 0.0	 0.0	 1	    1.00000	    0.00000	 63.0	 1	    1.07937	    0.92063;
	190	 2	 0.0	 0.0	 0.0	 0.0	 1	    0.94444	    0.00000	 45.0	 1	    1.00000	    0.88889;
	191	 1	 15.4	 -1.1	 0.0	 0.0	 1	    1.02222	    0.00000	 90.0	 1	    1.06667	    0.97778;
	192	 1	 9.9	 -0.0	 0.0	 0.0	 1	    1.00000	    0.00000	 63.0	 1	    1.07937	    0.92063;
	193	 1	 0.1	 0.7	 0.0	 0.0	 1	    1.04666	    0.00000	 225.0	 1	    1.08889	    1.00444;
	194	 2	 0.7	 -1.6	 0.0	 0.0	 1	    1.00000	    0.00000	 63.0	 1	    1.07937	    0.92063;
	195	 1	 0.0	 0.0	 0.0	 0.0	 1	    1.00800	    0.00000	 63.0	 1	    1.06362	    0.95238;
	196	 1	 0.0	 0.0	 0.0	 0.0	 1	    1.00800	    0.00000	 63.0	 1	    1.06362	    0.95238;
	197	 1	 27.5	 -0.6	 0.0	 15.0	 1	    1.00000	    0.00000	 63.0	 1	    1.07937	    0.92063;
	198	 1	 11.1	 -0.8	 0.0	 0.0	 1	    1.00000	    0.00000	 63.0	 1	    1.07937	    0.92063;
	199	 1	 12.6	 2.7	 0.0	 0.0	 1	    1.02222	    0.00000	 90.0	 1	    1.06667	    0.97778;
	200	 1	 0.0	 0.0	 0.0	 0.0	 1	    1.04445	    0.00000	 225.0	 1	    1.08889	    1.00000;
...
];

%% generator data
%	bus	Pg	Qg	Qmax	Qmin	Vg	mBase	status	Pmax	Pmin
mpc.gen = [
	4	 0.0	 0.0	 0.0	 0.0	 1.0111115	 100.0	 0	 12.0	 0.0; % COW
	4	 0.0	 0.0	 0.0	 0.0	 1.0111115	 100.0	 0	 10.0	 0.0; % NG
	5	 0.0	 0.0	 0.0	 0.0	 1.0079355	 100.0	 0	 9.1	 0.0; % NG
	11	 14.0	 0.0	 0.0	 0.0	 1.000001	 100.0	 1	 28.0	 0.0; % NG
	11	 0.0	 0.0	 0.0	 0.0	 1.000001	 100.0	 0	 18.0	 0.0; % PEL
	17	 0.0	 0.0	 0.0	 0.0	 1.022224	 100.0	 0	 8.2	 0.0; % NG
	19	 0.0	 0.0	 0.0	 0.0	 0.999999	 100.0	 0	 1.2	 0.0; % PEL
	22	 0.0	 0.0	 0.0	 0.0	 1.0158755	 100.0	 0	 10.0	 0.0; % NG
	24	 0.0	 0.0	 0.0	 0.0	 1.033333	 100.0	 0	 16.1	 0.0; % NG
	24	 0.0	 0.0	 0.0	 0.0	 1.033333	 100.0	 0	 35.5	 0.0; % NG
	25	 18.0	 0.0	 0.0	 0.0	 1.022222	 100.0	 1	 36.0	 0.0; % PEL
	25	 0.0	 0.0	 0.0	 0.0	 1.022222	 100.0	 0	 27.2	 0.0; % NG
	40	 0.0	 0.0	 0.0	 0.0	 1.027779	 100.0	 0	 8.0	 0.0; % NG
	47	 8.0	 -0.25	 9.5	 -10.0	 0.999999	 100.0	 1	 16.0	 0.0; % COW
	47	 8.0	 -0.25	 9.5	 -10.0	 0.999999	 100.0	 1	 16.0	 0.0; % PEL
	48	 0.0	 0.0	 0.0	 0.0	 1.000001	 100.0	 0	 23.0	 0.0; % PEL
	48	 0.0	 0.0	 0.0	 0.0	 1.000001	 100.0	 0	 24.0	 0.0; % COW
	57	 6.5	 0.95	 1.0	 0.9	 1.0000025	 100.0	 1	 13.0	 0.0; % COW
	64	 0.0	 0.0	 0.0	 0.0	 0.9888895	 100.0	 0	 24.0	 0.0; % NG
	64	 0.0	 0.0	 0.0	 0.0	 0.9888895	 100.0	 0	 27.6	 0.0; % NG
	69	 0.0	 0.0	 0.0	 0.0	 1.0079355	 100.0	 0	 30.04	 0.0; % NG
	70	 0.0	 0.0	 0.0	 0.0	 1.0158755	 100.0	 0	 23.0	 0.0; % COW
	85	 0.0	 0.0	 0.0	 0.0	 0.999999	 100.0	 0	 6.68	 0.0; % NG
	86	 0.0	 0.0	 0.0	 0.0	 1.022224	 100.0	 0	 9.2	 0.0; % NG
	102	 23.0	 6.0	 21.0	 -9.0	 1.0158755	 100.0	 1	 46.0	 0.0; % NG
	122	 6.0	 1.5	 5.0	 -2.0	 1.0158755	 100.0	 1	 12.0	 0.0; % NG
	124	 0.0	 0.0	 0.0	 0.0	 1.022224	 100.0	 0	 9.0	 0.0; % NG
	125	 13.0	 0.0	 0.0	 0.0	 1.0158755	 100.0	 1	 26.0	 0.0; % NG
	125	 6.0	 0.0	 0.0	 0.0	 1.0158755	 100.0	 1	 12.0	 0.0; % NG
	132	 8.5	 0.0	 3.0	 -3.0	 1.000001	 100.0	 1	 17.0	 0.0; % PEL
	132	 0.0	 0.8	 1.0	 -1.0	 1.000001	 100.0	 0	 4.0	 0.0; % NG
	132	 0.0	 0.8	 3.0	 -3.0	 1.000001	 100.0	 0	 14.0	 0.0; % NG
	132	 0.0	 0.8	 3.0	 -3.0	 1.000001	 100.0	 0	 14.0	 0.0; % COW
	137	 0.0	 -0.2	 0.8	 -0.8	 1.015872	 100.0	 0	 18.0	 0.0; % PEL
	137	 9.0	 0.0	 0.8	 -0.8	 1.015872	 100.0	 1	 18.0	 0.0; % NG
	155	 0.0	 0.47	 1.76	 -1.76	 1.0000025	 100.0	 0	 5.3	 0.0; % NG
	158	 8.95	 -1.5	 10.0	 -13.0	 0.9444445	 100.0	 1	 17.9	 0.0; % NG
	158	 8.95	 -1.5	 10.0	 -13.0	 0.9444445	 100.0	 1	 17.9	 0.0; % PEL
	176	 0.0	 0.78	 10.0	 -4.0	 1.0	 100.0	 0	 30.0	 0.0; % PEL
	187	 0.0	 1.92	 8.0	 -8.0	 1.0000025	 100.0	 0	 11.0	 0.0; % NG
	187	 0.0	 1.91	 2.0	 -2.0	 1.0000025	 100.0	 0	 11.0	 0.0; % NG
	190	 0.0	 -0.37	 14.0	 -14.0	 0.9444445	 100.0	 0	 30.0	 0.0; % NG
	192	 11.75	 0.0	 0.0	 0.0	 1.0000025	 100.0	 1	 23.5	 0.0; % PEL
	194	 7.5	 0.95	 1.0	 0.9	 1.0000025	 100.0	 1	 15.0	 0.0; % NG
	194	 7.5	 0.95	 1.0	 0.9	 1.0000025	 100.0	 1	 15.0	 0.0; % NG
	217	 0.0	 0.0	 0.0	 0.0	 1.022224	 100.0	 0	 11.94	 0.0; % NG
	224	 0.0	 0.79	 2.0	 0.0	 1.0	 100.0	 0	 6.0	 0.0; % NG
	227	 0.0	 0.0	 0.0	 0.0	 1.0079355	 100.0	 0	 7.5	 0.0; % COW
	236	 0.0	 0.0	 0.0	 0.0	 1.000001	 100.0	 0	 33.5	 0.0; % NG
	236	 0.0	 0.0	 0.0	 0.0	 1.000001	 100.0	 0	 24.3	 0.0; % NG
	238	 0.0	 0.0	 0.0	 0.0	 1.022224	 100.0	 0	 8.0	 0.0; % PEL
	238	 18.0	 0.0	 0.0	 0.0	 1.022224	 100.0	 1	 36.0	 0.0; % COW
	246	 0.0	 0.0	 2.0	 0.0	 0.999999	 100.0	 0	 1.0	 0.0; % PEL
	246	 0.0	 -0.31	 10.0	 -10.0	 0.999999	 100.0	 0	 31.0	 0.0; % PEL
	246	 0.0	 -0.31	 10.0	 -10.0	 0.999999	 100.0	 0	 31.0	 0.0; % NG
	246	 0.0	 -0.31	 10.0	 -10.0	 0.999999	 100.0	 0	 31.0	 0.0; % COW
	256	 13.0	 0.0	 10.0	 -10.0	 1.0000025	 100.0	 1	 26.0	 0.0; % NG
	256	 13.0	 0.0	 10.0	 -10.0	 1.0000025	 100.0	 1	 26.0	 0.0; % PEL
	258	 15.0	 0.95	 1.0	 0.9	 1.000001	 100.0	 1	 30.0	 0.0; % NG
	261	 0.0	 1.78	 4.0	 -4.0	 1.0000025	 100.0	 0	 8.0	 0.0; % COW
	269	 0.0	 0.0	 0.0	 0.0	 1.0000025	 100.0	 0	 12.6	 0.0; % NG
	282	 0.0	 -0.32	 6.1	 -6.2	 0.999999	 100.0	 0	 11.6	 0.0; % NG
	295	 0.0	 0.0	 0.0	 0.0	 0.9888895	 100.0	 0	 25.3	 0.0; % NG
	296	 6.0	 0.0	 0.0	 0.0	 1.0158755	 100.0	 1	 12.0	 0.0; % NG
	305	 0.0	 -6.56	 9.0	 -9.0	 0.999999	 100.0	 0	 15.0	 0.0; % NG
	312	 12.9	 0.0	 0.0	 0.0	 1.000001	 100.0	 1	 25.8	 0.0; % PEL
	312	 24.8	 0.0	 0.0	 0.0	 1.000001	 100.0	 1	 49.6	 0.0; % NG
	317	 0.0	 0.0	 0.0	 0.0	 1.0000025	 100.0	 0	 0.0	 -7.0; % SYNC
	317	 0.0	 0.0	 0.0	 0.0	 1.0000025	 100.0	 0	 0.0	 -7.0; % SYNC
	319	 0.0	 0.1	 0.1	 -0.1	 1.0000025	 100.0	 0	 10.8	 0.0; % PEL
	325	 0.0	 -0.29	 4.0	 -4.0	 0.999999	 100.0	 0	 11.0	 0.0; % NG
	332	 0.0	 1.22	 13.0	 -9.0	 1.015872	 100.0	 0	 25.0	 0.0; % PEL
	333	 0.0	 4.72	 13.0	 -9.0	 1.0233335	 100.0	 0	 25.0	 0.0; % NG
	336	 6.5	 -0.5	 5.0	 -6.0	 1.0000025	 100.0	 1	 13.0	 0.0; % NG
	338	 0.0	 1.74	 10.0	 -10.0	 1.0000025	 100.0	 0	 21.0	 0.0; % PEL
	338	 0.0	 0.1	 0.1	 -0.1	 1.0000025	 100.0	 0	 2.0	 0.0; % PEL
	345	 0.0	 0.0	 0.0	 0.0	 1.027779	 100.0	 0	 2.3	 0.0; % PEL
	345	 0.0	 0.0	 0.0	 0.0	 1.027779	 100.0	 0	 19.5	 0.0; % PEL
	348	 0.0	 0.0	 0.0	 0.0	 1.022222	 100.0	 0	 22.0	 0.0; % PEL
	357	 0.0	 0.0	 0.0	 0.0	 1.0158755	 100.0	 0	 12.0	 0.0; % COW
	357	 0.0	 0.0	 0.0	 0.0	 1.0158755	 100.0	 0	 12.0	 0.0; % NG
	364	 65.0	 16.5	 59.0	 -26.0	 1.046665	 100.0	 1	 130.0	 0.0; % NG
	391	 0.0	 0.0	 0.0	 0.0	 1.0000025	 100.0	 0	 2.7	 0.0; % PEL
	409	 0.0	 1.09	 5.0	 -5.0	 1.015872	 100.0	 0	 18.0	 0.0; % NG
	411	 0.0	 0.0	 0.0	 0.0	 1.022224	 100.0	 0	 10.0	 0.0; % NG
	411	 0.0	 0.0	 0.0	 0.0	 1.022224	 100.0	 0	 11.5	 0.0; % NG
	431	 0.0	 0.0	 0.0	 0.0	 1.0000025	 100.0	 0	 12.0	 0.0; % NG
	440	 0.0	 1.25	 10.96	 -11.99	 1.0000025	 100.0	 0	 34.25	 0.0; % NG
	447	 12.5	 -0.5	 8.0	 -9.0	 1.015872	 100.0	 1	 25.0	 0.0; % NG
	462	 0.0	 0.0	 0.0	 0.0	 1.0079355	 100.0	 0	 2.4	 0.0; % PEL
	462	 0.0	 0.0	 0.0	 0.0	 1.0079355	 100.0	 0	 16.0	 0.0; % NG
	464	 14.0	 1.5	 6.0	 -3.0	 0.98822	 100.0	 1	 27.0	 1.0; % NG
	464	 14.0	 1.5	 6.0	 -3.0	 0.98822	 100.0	 1	 27.0	 1.0; % NG
	466	 0.0	 0.0	 19.0	 -10.0	 1.0079355	 100.0	 0	 48.0	 1.0; % NG
	470	 0.0	 -0.68	 6.0	 -6.0	 0.999999	 100.0	 0	 10.0	 0.0; % NG
	470	 0.0	 -2.11	 5.4	 -5.4	 0.999999	 100.0	 0	 9.0	 0.0; % NG
	479	 0.0	 -0.24	 17.0	 -16.0	 0.999999	 100.0	 0	 27.0	 0.0; % NG
	479	 0.0	 -0.24	 17.0	 -16.0	 0.999999	 100.0	 0	 27.0	 0.0; % NG
	479	 0.0	 -0.24	 17.0	 -16.0	 0.999999	 100.0	 0	 27.0	 0.0; % PEL
	491	 0.0	 -2.0	 8.0	 -17.0	 1.033334	 100.0	 0	 23.4	 0.0; % PEL
	508	 0.0	 1.77	 2.0	 -2.0	 0.999999	 100.0	 0	 4.0	 0.0; % NG
	519	 0.0	 0.0	 0.0	 0.0	 1.015874	 100.0	 0	 10.0	 0.0; % PEL
	520	 0.0	 0.0	 0.0	 0.0	 1.022224	 100.0	 0	 12.0	 0.0; % NG
	530	 4.0	 0.0	 4.8	 -4.8	 0.999999	 100.0	 1	 8.0	 0.0; % COW
	530	 4.0	 0.0	 4.8	 -4.8	 0.999999	 100.0	 1	 8.0	 0.0; % COW
	530	 4.0	 0.0	 4.8	 -4.8	 0.999999	 100.0	 1	 8.0	 0.0; % COW
	537	 0.0	 0.0	 0.0	 0.0	 1.022224	 100.0	 0	 12.0	 0.0; % NG
	537	 12.0	 0.0	 0.0	 0.0	 1.022224	 100.0	 1	 24.0	 0.0; % PEL
	546	 4.5	 1.95	 2.0	 1.9	 1.0000025	 100.0	 1	 9.0	 0.0; % NG
	548	 0.0	 1.04	 2.0	 0.0	 1.0000025	 100.0	 0	 12.0	 0.0; % NG
	570	 0.0	 0.0	 0.0	 0.0	 1.0158755	 100.0	 0	 12.0	 0.0; % COW
	570	 0.0	 0.0	 0.0	 0.0	 1.0158755	 100.0	 0	 30.0	 0.0; % PEL
	570	 0.0	 0.0	 0.0	 0.0	 1.0158755	 100.0	 0	 11.5	 0.0; % NG
	583	 8.0	 1.5	 7.0	 -4.0	 1.0000005	 100.0	 1	 16.0	 0.0; % PEL
	585	 0.0	 0.0	 0.0	 0.0	 1.0158755	 100.0	 0	 9.0	 0.0; % NG
	586	 0.0	 4.82	 5.7	 -5.7	 0.999999	 100.0	 0	 9.5	 0.0; % NG
	589	 0.0	 0.1	 0.1	 -0.1	 1.000001	 100.0	 0	 1.0	 0.0; % PEL
	593	 0.0	 1.09	 10.0	 -10.0	 1.0000025	 100.0	 0	 21.0	 0.0; % PEL
	600	 0.0	 0.79	 1.0	 -1.0	 1.015872	 100.0	 0	 6.1	 0.0; % PEL
	610	 22.5	 0.0	 45.0	 -45.0	 0.975	 100.0	 1	 45.0	 0.0; % NG
	610	 0.0	 -0.45	 45.0	 -45.0	 0.975	 100.0	 0	 45.0	 0.0; % NG
	612	 0.0	 0.0	 0.0	 0.0	 1.022224	 100.0	 0	 12.0	 0.0; % NG
	612	 0.0	 0.0	 0.0	 0.0	 1.022224	 100.0	 0	 12.0	 0.0; % NG
	612	 0.0	 0.0	 0.0	 0.0	 1.022224	 100.0	 0	 12.0	 0.0; % NG
	613	 0.0	 0.0	 0.0	 0.0	 1.0000005	 100.0	 0	 35.0	 0.0; % NG
	613	 0.0	 0.0	 0.0	 0.0	 1.0000005	 100.0	 0	 11.5	 0.0; % PEL
	624	 0.0	 0.0	 8.3	 -8.3	 1.0111115	 100.0	 1	 8.3	 -8.3; % PEL
	633	 0.0	 -2.55	 4.0	 -4.0	 0.999999	 100.0	 0	 7.3	 0.0; % COW
	636	 0.0	 0.25	 7.0	 0.0	 1.015872	 100.0	 0	 15.0	 0.0; % NG
	636	 7.5	 3.5	 7.0	 0.0	 1.015872	 100.0	 1	 15.0	 0.0; % NG
	646	 119.5	 2.5	 80.0	 -75.0	 1.078945	 100.0	 1	 239.0	 0.0; % NG
	657	 0.0	 0.51	 7.0	 0.0	 1.0000025	 100.0	 0	 7.0	 0.0; % NG
	675	 0.0	 0.0	 0.0	 0.0	 1.022224	 100.0	 0	 12.0	 0.0; % NG
	675	 6.0	 0.0	 0.0	 0.0	 1.022224	 100.0	 1	 12.0	 0.0; % PEL
	676	 0.0	 0.0	 0.0	 0.0	 1.027779	 100.0	 0	 7.5	 0.0; % NG
	676	 0.0	 0.0	 0.0	 0.0	 1.027779	 100.0	 0	 24.0	 0.0; % PEL
	684	 0.0	 0.0	 0.0	 0.0	 1.0218635	 100.0	 0	 6.6	 0.0; % NG
	685	 0.0	 0.0	 0.0	 0.0	 1.022224	 100.0	 0	 12.0	 0.0; % NG
	689	 4.5	 0.5	 6.0	 -5.0	 0.9444445	 100.0	 1	 9.0	 0.0; % COW
	689	 4.5	 0.5	 6.0	 -5.0	 0.9444445	 100.0	 1	 9.0	 0.0; % PEL
	689	 0.0	 1.22	 8.0	 -5.0	 0.9444445	 100.0	 0	 11.0	 0.0; % NG
	689	 5.5	 1.5	 8.0	 -5.0	 0.9444445	 100.0	 1	 11.0	 0.0; % PEL
	700	 0.0	 0.0	 0.0	 0.0	 1.022222	 100.0	 0	 32.35	 0.0; % NG
	700	 0.0	 0.0	 0.0	 0.0	 1.022222	 100.0	 0	 12.0	 0.0; % NG
	700	 0.0	 0.0	 0.0	 0.0	 1.022222	 100.0	 0	 21.0	 0.0; % NG
	704	 18.5	 -1.0	 15.0	 -17.0	 0.975	 100.0	 1	 37.0	 0.0; % NG
	704	 18.5	 -1.0	 15.0	 -17.0	 0.975	 100.0	 1	 37.0	 0.0; % NG
	703	 18.5	 0.0	 15.0	 -15.0	 0.975	 100.0	 1	 37.0	 0.0; % NG
	703	 18.5	 0.0	 15.0	 -15.0	 0.975	 100.0	 1	 37.0	 0.0; % COW
	702	 18.5	 -1.0	 15.0	 -17.0	 0.975	 100.0	 1	 37.0	 0.0; % NG
	702	 18.5	 -1.0	 15.0	 -17.0	 0.975	 100.0	 1	 37.0	 0.0; % NG
	710	 0.0	 2.0	 2.0	 -2.0	 0.9444445	 100.0	 0	 4.0	 0.0; % PEL
	710	 0.0	 2.16	 2.5	 -2.5	 0.9444445	 100.0	 0	 4.0	 0.0; % NG
	710	 2.85	 0.0	 3.0	 -3.0	 0.9444445	 100.0	 1	 5.7	 0.0; % NG
	710	 0.0	 0.5	 6.0	 -5.0	 0.9444445	 100.0	 0	 8.5	 0.0; % NG
	737	 0.0	 0.0	 0.0	 0.0	 1.022224	 100.0	 0	 19.5	 0.0; % PEL
	738	 19.5	 0.0	 18.0	 -18.0	 0.999999	 100.0	 1	 39.0	 0.0; % PEL
	739	 5.75	 0.0	 0.0	 0.0	 1.0158755	 100.0	 1	 11.5	 0.0; % PEL
	739	 16.0	 0.0	 0.0	 0.0	 1.0158755	 100.0	 1	 32.0	 0.0; % NG
	741	 0.0	 0.0	 0.0	 0.0	 1.000001	 100.0	 0	 12.0	 0.0; % NG
	741	 0.0	 0.0	 0.0	 0.0	 1.000001	 100.0	 0	 32.0	 0.0; % NG
	742	 0.0	 0.1	 0.1	 -0.1	 1.0000025	 100.0	 0	 5.0	 0.0; % NG
	749	 0.0	 3.42	 3.97	 -3.7	 0.999999	 100.0	 0	 6.7	 0.0; % PEL
	749	 0.0	 2.98	 3.54	 -3.0	 0.999999	 100.0	 0	 5.6	 0.0; % NG
	750	 13.3	 0.0	 15.0	 -15.0	 0.999999	 100.0	 1	 26.6	 0.0; % NG
	751	 4.0	 0.0	 2.0	 -2.0	 1.022224	 100.0	 1	 7.0	 1.0; % NG
	756	 0.0	 -0.31	 3.0	 -3.0	 0.999999	 100.0	 0	 5.0	 -5.0; % NG
	763	 0.0	 0.84	 8.0	 -8.0	 0.9888895	 100.0	 0	 23.5	 0.0; % PEL
	765	 0.0	 0.0	 0.0	 0.0	 0.999999	 100.0	 0	 6.0	 0.0; % PEL
	766	 0.0	 0.0	 0.0	 0.0	 0.999999	 100.0	 0	 6.0	 0.0; % NG
	765	 18.75	 1.79	 10.0	 -6.42	 0.999999	 100.0	 1	 37.5	 0.0; % PEL
	766	 18.75	 2.0	 10.0	 -6.0	 0.999999	 100.0	 1	 37.5	 0.0; % COW
	767	 0.0	 0.06	 0.06	 -0.06	 0.825	 100.0	 0	 0.6	 0.0; % PEL
	767	 0.0	 1.89	 2.61	 -2.61	 0.825	 100.0	 0	 26.1	 0.0; % NG
	767	 0.0	 0.16	 0.16	 -0.16	 0.825	 100.0	 0	 1.6	 0.0; % PEL
	767	 0.0	 0.11	 0.11	 -0.11	 0.825	 100.0	 0	 1.1	 0.0; % PEL
	771	 0.0	 0.0	 0.0	 0.0	 1.0158755	 100.0	 0	 37.5	 0.0; % COW
	771	 17.0	 0.0	 0.0	 0.0	 1.0158755	 100.0	 1	 34.0	 0.0; % NG
	791	 0.0	 -0.47	 26.0	 -26.0	 0.975	 100.0	 0	 8.0	 0.0; % PEL
	791	 0.0	 -0.47	 26.0	 -26.0	 0.975	 100.0	 0	 15.0	 0.0; % COW
	792	 0.0	 -0.47	 26.0	 -26.0	 0.975	 100.0	 0	 19.0	 0.0; % NG
	806	 15.5	 -1.0	 15.0	 -17.0	 0.975	 100.0	 1	 31.0	 0.0; % PEL
	806	 15.5	 -1.0	 15.0	 -17.0	 0.975	 100.0	 1	 31.0	 0.0; % NG
	807	 15.5	 -1.0	 15.0	 -17.0	 0.975	 100.0	 1	 31.0	 0.0; % NG
	807	 15.5	 -1.0	 15.0	 -17.0	 0.975	 100.0	 1	 31.0	 0.0; % NG
	808	 15.5	 -1.0	 15.0	 -17.0	 0.975	 100.0	 1	 31.0	 0.0; % NG
	808	 15.5	 -1.0	 15.0	 -17.0	 0.975	 100.0	 1	 31.0	 0.0; % PEL
	812	 20.4	 0.0	 0.0	 0.0	 1.0000025	 100.0	 1	 40.8	 0.0; % COW
	820	 16.5	 -1.5	 6.0	 -9.0	 1.015872	 100.0	 1	 32.0	 1.0; % NG
	820	 0.0	 0.0	 6.0	 -9.0	 1.015872	 100.0	 0	 32.0	 1.0; % PEL
	821	 16.5	 -1.5	 6.0	 -9.0	 1.015872	 100.0	 1	 32.0	 1.0; % NG
	821	 16.5	 -1.5	 6.0	 -9.0	 1.015872	 100.0	 1	 32.0	 1.0; % PEL
	821	 16.5	 -1.5	 6.0	 -9.0	 1.015872	 100.0	 1	 32.0	 1.0; % NG
	821	 16.5	 -1.5	 6.0	 -9.0	 1.015872	 100.0	 1	 32.0	 1.0; % NG
	831	 0.0	 1.01	 3.0	 -3.0	 1.0000025	 100.0	 0	 13.0	 0.0; % NG
	831	 0.0	 3.0	 3.0	 -3.0	 1.0000025	 100.0	 0	 7.0	 0.0; % NG
	834	 0.0	 0.0	 0.0	 0.0	 1.022222	 100.0	 0	 2.4	 0.0; % PEL
	835	 13.5	 0.0	 10.0	 -10.0	 1.0000025	 100.0	 1	 27.0	 0.0; % COW
	836	 0.0	 -0.46	 10.0	 -10.0	 0.9444445	 100.0	 0	 20.0	 0.0; % PEL
	838	 0.0	 1.03	 3.14	 -3.43	 1.0000025	 100.0	 0	 9.8	 0.0; % PEL
...
];

%% generator cost data
%	2	startup	shutdown	n	c(n-1)	...	c0
mpc.gencost = [
2	0.0	0.0	3	0.2	13.409395	0.000000;	%	COW
2	0.0	0.0	3	0.2	31.107344	0.000000;	%	NG
2	0.0	0.0	3	0.2	47.925525	0.000000;	%	NG
2	0.0	0.0	3	0.2	20.484465	0.000000;	%	NG
2	0.0	0.0	3	0.2	108.925421	0.000000;	%	PEL
2	0.0	0.0	3	0.2	28.288203	0.000000;	%	NG
2	0.0	0.0	3	0.2	113.056805	0.000000;	%	PEL
2	0.0	0.0	3	0.2	37.340978	0.000000;	%	NG
2	0.0	0.0	3	0.2	35.662206	0.000000;	%	NG
2	0.0	0.0	3	0.2	32.703933	0.000000;	%	NG
2	0.0	0.0	3	0.2	114.557087	0.000000;	%	PEL
2	0.0	0.0	3	0.2	50.026509	0.000000;	%	NG
2	0.0	0.0	3	0.2	34.735298	0.000000;	%	NG
2	0.0	0.0	3	0.2	22.571794	0.000000;	%	COW
2	0.0	0.0	3	0.2	95.370382	0.000000;	%	PEL
2	0.0	0.0	3	0.2	104.662993	0.000000;	%	PEL
2	0.0	0.0	3	0.2	29.880796	0.000000;	%	COW
2	0.0	0.0	3	0.2	18.733966	0.000000;	%	COW
2	0.0	0.0	3	0.2	26.732519	0.000000;	%	NG
2	0.0	0.0	3	0.2	49.970101	0.000000;	%	NG
2	0.0	0.0	3	0.2	42.646350	0.000000;	%	NG
2	0.0	0.0	3	0.2	24.566193	0.000000;	%	COW
2	0.0	0.0	3	0.2	32.544217	0.000000;	%	NG
2	0.0	0.0	3	0.2	21.679418	0.000000;	%	NG
2	0.0	0.0	3	0.2	43.393878	0.000000;	%	NG
2	0.0	0.0	3	0.2	42.830882	0.000000;	%	NG
2	0.0	0.0	3	0.2	42.424725	0.000000;	%	NG
2	0.0	0.0	3	0.2	28.272820	0.000000;	%	NG
2	0.0	0.0	3	0.2	42.460903	0.000000;	%	NG
2	0.0	0.0	3	0.2	129.749890	0.000000;	%	PEL
2	0.0	0.0	3	0.2	38.262547	0.000000;	%	NG
2	0.0	0.0	3	0.2	34.213206	0.000000;	%	NG
2	0.0	0.0	3	0.2	22.985309	0.000000;	%	COW
2	0.0	0.0	3	0.2	129.405681	0.000000;	%	PEL
2	0.0	0.0	3	0.2	36.334698	0.000000;	%	NG
2	0.0	0.0	3	0.2	25.436639	0.000000;	%	NG
2	0.0	0.0	3	0.2	35.318814	0.000000;	%	NG
2	0.0	0.0	3	0.2	94.856054	0.000000;	%	PEL
2	0.0	0.0	3	0.2	112.508935	0.000000;	%	PEL
2	0.0	0.0	3	0.2	41.816967	0.000000;	%	NG
2	0.0	0.0	3	0.2	39.577782	0.000000;	%	NG
2	0.0	0.0	3	0.2	35.074195	0.000000;	%	NG
2	0.0	0.0	3	0.2	121.067002	0.000000;	%	PEL
2	0.0	0.0	3	0.2	29.040562	0.000000;	%	NG
2	0.0	0.0	3	0.2	28.319622	0.000000;	%	NG
2	0.0	0.0	3	0.2	53.375829	0.000000;	%	NG
2	0.0	0.0	3	0.2	43.804258	0.000000;	%	NG
2	0.0	0.0	3	0.2	18.429469	0.000000;	%	COW
2	0.0	0.0	3	0.2	40.720694	0.000000;	%	NG
2	0.0	0.0	3	0.2	62.366023	0.000000;	%	NG
2	0.0	0.0	3	0.2	105.750649	0.000000;	%	PEL
2	0.0	0.0	3	0.2	25.509795	0.000000;	%	COW
2	0.0	0.0	3	0.2	119.781153	0.000000;	%	PEL
2	0.0	0.0	3	0.2	105.846763	0.000000;	%	PEL
2	0.0	0.0	3	0.2	34.198164	0.000000;	%	NG
2	0.0	0.0	3	0.2	29.720127	0.000000;	%	COW
2	0.0	0.0	3	0.2	32.320585	0.000000;	%	NG
2	0.0	0.0	3	0.2	105.326679	0.000000;	%	PEL
2	0.0	0.0	3	0.2	47.168862	0.000000;	%	NG
2	0.0	0.0	3	0.2	11.147421	0.000000;	%	COW
2	0.0	0.0	3	0.2	40.203379	0.000000;	%	NG
2	0.0	0.0	3	0.2	26.475949	0.000000;	%	NG
2	0.0	0.0	3	0.2	44.895622	0.000000;	%	NG
2	0.0	0.0	3	0.2	32.682197	0.000000;	%	NG
2	0.0	0.0	3	0.2	43.201272	0.000000;	%	NG
2	0.0	0.0	3	0.2	99.185353	0.000000;	%	PEL
2	0.0	0.0	3	0.2	44.709576	0.000000;	%	NG
	2	 0.0	 0.0	 3	   0.000000	   0.000000	   0.000000; % SYNC
	2	 0.0	 0.0	 3	   0.000000	   0.000000	   0.000000; % SYNC
2	0.0	0.0	3	0.2	107.154842	0.000000;	%	PEL
2	0.0	0.0	3	0.2	22.126708	0.000000;	%	NG
2	0.0	0.0	3	0.2	110.200206	0.000000;	%	PEL
2	0.0	0.0	3	0.2	21.028681	0.000000;	%	NG
2	0.0	0.0	3	0.2	49.214731	0.000000;	%	NG
2	0.0	0.0	3	0.2	103.226922	0.000000;	%	PEL
2	0.0	0.0	3	0.2	114.113676	0.000000;	%	PEL
2	0.0	0.0	3	0.2	111.856160	0.000000;	%	PEL
2	0.0	0.0	3	0.2	100.708099	0.000000;	%	PEL
2	0.0	0.0	3	0.2	112.648630	0.000000;	%	PEL
2	0.0	0.0	3	0.2	15.902368	0.000000;	%	COW
2	0.0	0.0	3	0.2	52.157163	0.000000;	%	NG
2	0.0	0.0	3	0.2	33.281249	0.000000;	%	NG
2	0.0	0.0	3	0.2	107.373446	0.000000;	%	PEL
2	0.0	0.0	3	0.2	41.380567	0.000000;	%	NG
2	0.0	0.0	3	0.2	21.429155	0.000000;	%	NG
2	0.0	0.0	3	0.2	33.641328	0.000000;	%	NG
2	0.0	0.0	3	0.2	21.065015	0.000000;	%	NG
2	0.0	0.0	3	0.2	28.884585	0.000000;	%	NG
2	0.0	0.0	3	0.2	29.611076	0.000000;	%	NG
2	0.0	0.0	3	0.2	97.038261	0.000000;	%	PEL
2	0.0	0.0	3	0.2	41.423740	0.000000;	%	NG
2	0.0	0.0	3	0.2	15.214475	0.000000;	%	NG
2	0.0	0.0	3	0.2	34.270388	0.000000;	%	NG
2	0.0	0.0	3	0.2	35.720652	0.000000;	%	NG
2	0.0	0.0	3	0.2	47.404552	0.000000;	%	NG
2	0.0	0.0	3	0.2	29.607197	0.000000;	%	NG
2	0.0	0.0	3	0.2	34.430596	0.000000;	%	NG
2	0.0	0.0	3	0.2	16.733430	0.000000;	%	NG
2	0.0	0.0	3	0.2	115.624427	0.000000;	%	PEL
2	0.0	0.0	3	0.2	105.340402	0.000000;	%	PEL
2	0.0	0.0	3	0.2	40.111380	0.000000;	%	NG
2	0.0	0.0	3	0.2	125.429814	0.000000;	%	PEL
2	0.0	0.0	3	0.2	12.846056	0.000000;	%	NG
2	0.0	0.0	3	0.2	21.485381	0.000000;	%	COW
2	0.0	0.0	3	0.2	15.025122	0.000000;	%	COW
2	0.0	0.0	3	0.2	30.402417	0.000000;	%	COW
2	0.0	0.0	3	0.2	45.537009	0.000000;	%	NG
2	0.0	0.0	3	0.2	106.144639	0.000000;	%	PEL
2	0.0	0.0	3	0.2	47.740858	0.000000;	%	NG
2	0.0	0.0	3	0.2	34.382454	0.000000;	%	NG
2	0.0	0.0	3	0.2	34.286070	0.000000;	%	COW
2	0.0	0.0	3	0.2	118.753632	0.000000;	%	PEL
2	0.0	0.0	3	0.2	49.144417	0.000000;	%	NG
2	0.0	0.0	3	0.2	95.051989	0.000000;	%	PEL
2	0.0	0.0	3	0.2	34.320952	0.000000;	%	NG
2	0.0	0.0	3	0.2	39.421884	0.000000;	%	NG
2	0.0	0.0	3	0.2	97.588389	0.000000;	%	PEL
2	0.0	0.0	3	0.2	116.298354	0.000000;	%	PEL
2	0.0	0.0	3	0.2	110.050420	0.000000;	%	PEL
2	0.0	0.0	3	0.2	33.665482	0.000000;	%	NG
2	0.0	0.0	3	0.2	50.428964	0.000000;	%	NG
2	0.0	0.0	3	0.2	42.844648	0.000000;	%	NG
2	0.0	0.0	3	0.2	44.664680	0.000000;	%	NG
2	0.0	0.0	3	0.2	37.314561	0.000000;	%	NG
2	0.0	0.0	3	0.2	37.424900	0.000000;	%	NG
2	0.0	0.0	3	0.2	107.476686	0.000000;	%	PEL
2	0.0	0.0	3	0.2	112.031232	0.000000;	%	PEL
2	0.0	0.0	3	0.2	23.394024	0.000000;	%	COW
2	0.0	0.0	3	0.2	30.417268	0.000000;	%	NG
2	0.0	0.0	3	0.2	31.530774	0.000000;	%	NG
2	0.0	0.0	3	0.2	19.789937	0.000000;	%	NG
2	0.0	0.0	3	0.2	34.642733	0.000000;	%	NG
2	0.0	0.0	3	0.2	37.248529	0.000000;	%	NG
2	0.0	0.0	3	0.2	111.815061	0.000000;	%	PEL
2	0.0	0.0	3	0.2	47.672977	0.000000;	%	NG
2	0.0	0.0	3	0.2	126.982832	0.000000;	%	PEL
2	0.0	0.0	3	0.2	31.150494	0.000000;	%	NG
2	0.0	0.0	3	0.2	31.341177	0.000000;	%	NG
2	0.0	0.0	3	0.2	22.658011	0.000000;	%	COW
2	0.0	0.0	3	0.2	105.745883	0.000000;	%	PEL
2	0.0	0.0	3	0.2	43.889667	0.000000;	%	NG
2	0.0	0.0	3	0.2	116.415985	0.000000;	%	PEL
2	0.0	0.0	3	0.2	47.729573	0.000000;	%	NG
2	0.0	0.0	3	0.2	54.351772	0.000000;	%	NG
2	0.0	0.0	3	0.2	17.527648	0.000000;	%	NG
2	0.0	0.0	3	0.2	49.460931	0.000000;	%	NG
2	0.0	0.0	3	0.2	53.399727	0.000000;	%	NG
2	0.0	0.0	3	0.2	22.369194	0.000000;	%	NG
2	0.0	0.0	3	0.2	25.996049	0.000000;	%	COW
2	0.0	0.0	3	0.2	42.670952	0.000000;	%	NG
2	0.0	0.0	3	0.2	36.871201	0.000000;	%	NG
2	0.0	0.0	3	0.2	108.579564	0.000000;	%	PEL
2	0.0	0.0	3	0.2	49.576855	0.000000;	%	NG
2	0.0	0.0	3	0.2	21.550069	0.000000;	%	NG
2	0.0	0.0	3	0.2	33.795537	0.000000;	%	NG
2	0.0	0.0	3	0.2	108.559824	0.000000;	%	PEL
2	0.0	0.0	3	0.2	123.215905	0.000000;	%	PEL
2	0.0	0.0	3	0.2	110.716487	0.000000;	%	PEL
2	0.0	0.0	3	0.2	43.225307	0.000000;	%	NG
2	0.0	0.0	3	0.2	32.888565	0.000000;	%	NG
2	0.0	0.0	3	0.2	23.351447	0.000000;	%	NG
2	0.0	0.0	3	0.2	34.291115	0.000000;	%	NG
2	0.0	0.0	3	0.2	111.264681	0.000000;	%	PEL
2	0.0	0.0	3	0.2	41.478238	0.000000;	%	NG
2	0.0	0.0	3	0.2	49.955760	0.000000;	%	NG
2	0.0	0.0	3	0.2	40.397864	0.000000;	%	NG
2	0.0	0.0	3	0.2	28.479741	0.000000;	%	NG
2	0.0	0.0	3	0.2	109.477258	0.000000;	%	PEL
2	0.0	0.0	3	0.2	101.034318	0.000000;	%	PEL
2	0.0	0.0	3	0.2	38.116001	0.000000;	%	NG
2	0.0	0.0	3	0.2	113.700924	0.000000;	%	PEL
2	0.0	0.0	3	0.2	38.090042	0.000000;	%	COW
2	0.0	0.0	3	0.2	116.103190	0.000000;	%	PEL
2	0.0	0.0	3	0.2	30.049675	0.000000;	%	NG
2	0.0	0.0	3	0.2	91.065151	0.000000;	%	PEL
2	0.0	0.0	3	0.2	113.340308	0.000000;	%	PEL
2	0.0	0.0	3	0.2	39.447435	0.000000;	%	COW
2	0.0	0.0	3	0.2	31.460049	0.000000;	%	NG
2	0.0	0.0	3	0.2	108.209898	0.000000;	%	PEL
2	0.0	0.0	3	0.2	14.100324	0.000000;	%	COW
2	0.0	0.0	3	0.2	33.687083	0.000000;	%	NG
2	0.0	0.0	3	0.2	117.028476	0.000000;	%	PEL
2	0.0	0.0	3	0.2	51.973804	0.000000;	%	NG
2	0.0	0.0	3	0.2	56.873140	0.000000;	%	NG
2	0.0	0.0	3	0.2	15.666793	0.000000;	%	NG
2	0.0	0.0	3	0.2	32.564503	0.000000;	%	NG
2	0.0	0.0	3	0.2	95.867748	0.000000;	%	PEL
2	0.0	0.0	3	0.2	35.015386	0.000000;	%	COW
2	0.0	0.0	3	0.2	36.300428	0.000000;	%	NG
2	0.0	0.0	3	0.2	99.832710	0.000000;	%	PEL
2	0.0	0.0	3	0.2	35.391841	0.000000;	%	NG
2	0.0	0.0	3	0.2	97.701407	0.000000;	%	PEL
2	0.0	0.0	3	0.2	29.477873	0.000000;	%	NG
2	0.0	0.0	3	0.2	29.478832	0.000000;	%	NG
2	0.0	0.0	3	0.2	38.474634	0.000000;	%	NG
2	0.0	0.0	3	0.2	38.431478	0.000000;	%	NG
2	0.0	0.0	3	0.2	117.338369	0.000000;	%	PEL
2	0.0	0.0	3	0.2	12.619040	0.000000;	%	COW
2	0.0	0.0	3	0.2	113.186506	0.000000;	%	PEL
2	0.0	0.0	3	0.2	113.393834	0.000000;	%	PEL
...
];

%% storage data
%	bus	energy	energy_rating	charge_rating	discharge_rating	thermal_rating	qmin	qmax	r	x	standby_loss	status
mpc.storage = [
	5990	0.0	0.0	1.00	4166.5500	2083.2750	1499.9580	0.9	0.85	1000	-1000	1000	0.1	0.01	0	0	1;
	6182	0.0	0.0	1.00	1403.4000	701.7000	505.2240	0.9	0.85	1000	-1000	1000	0.1	0.01	0	0	1;
	6036	0.0	0.0	1.00	1288.6500	644.3250	463.9140	0.9	0.85	1000	-1000	1000	0.1	0.01	0	0	1;
	6175	0.0	0.0	1.00	1273.8000	636.9000	458.5680	0.9	0.85	1000	-1000	1000	0.1	0.01	0	0	1;
	6028	0.0	0.0	1.00	1204.0500	602.0250	433.4580	0.9	0.85	1000	-1000	1000	0.1	0.01	0	0	1;
	6057	0.0	0.0	1.00	1016.2500	508.1250	365.8500	0.9	0.85	1000	-1000	1000	0.1	0.01	0	0	1;
	6235	0.0	0.0	1.00	1005.7500	502.8750	362.0700	0.9	0.85	1000	-1000	1000	0.1	0.01	0	0	1;
	5977	0.0	0.0	1.00	945.4500	472.7250	340.3620	0.9	0.85	1000	-1000	1000	0.1	0.01	0	0	1;
	6066	0.0	0.0	1.00	943.2000	471.6000	339.5520	0.9	0.85	1000	-1000	1000	0.1	0.01	0	0	1;
	5967	0.0	0.0	1.00	919.3500	459.6750	330.9660	0.9	0.85	1000	-1000	1000	0.1	0.01	0	0	1;
	6137	0.0	0.0	1.00	851.8500	425.9250	306.6660	0.9	0.85	1000	-1000	1000	0.1	0.01	0	0	1;
	6030	0.0	0.0	1.00	817.9500	408.9750	294.4620	0.9	0.85	1000	-1000	1000	0.1	0.01	0	0	1;
	5992	0.0	0.0	1.00	806.4000	403.2000	290.3040	0.9	0.85	1000	-1000	1000	0.1	0.01	0	0	1;
	473	0.0	0.0	1.00	761.8500	380.9250	274.2660	0.9	0.85	1000	-1000	1000	0.1	0.01	0	0	1;
	472	0.0	0.0	1.00	745.3500	372.6750	268.3260	0.9	0.85	1000	-1000	1000	0.1	0.01	0	0	1;
	6027	0.0	0.0	1.00	742.9500	371.4750	267.4620	0.9	0.85	1000	-1000	1000	0.1	0.01	0	0	1;
	6061	0.0	0.0	1.00	741.1500	370.5750	266.8140	0.9	0.85	1000	-1000	1000	0.1	0.01	0	0	1;
	5984	0.0	0.0	1.00	720.0000	360.0000	259.2000	0.9	0.85	1000	-1000	1000	0.1	0.01	0	0	1;
	6133	0.0	0.0	1.00	697.2000	348.6000	250.9920	0.9	0.85	1000	-1000	1000	0.1	0.01	0	0	1;
	6219	0.0	0.0	1.00	672.0000	336.0000	241.9200	0.9	0.85	1000	-1000	1000	0.1	0.01	0	0	1;
	5993	0.0	0.0	1.00	669.0000	334.5000	240.8400	0.9	0.85	1000	-1000	1000	0.1	0.01	0	0	1;
	6098	0.0	0.0	1.00	668.2500	334.1250	240.5700	0.9	0.85	1000	-1000	1000	0.1	0.01	0	0	1;
	6124	0.0	0.0	1.00	649.0500	324.5250	233.6580	0.9	0.85	1000	-1000	1000	0.1	0.01	0	0	1;
	6079	0.0	0.0	1.00	628.8000	314.4000	226.3680	0.9	0.85	1000	-1000	1000	0.1	0.01	0	0	1;
	2140	0.0	0.0	1.00	606.1500	303.0750	218.2140	0.9	0.85	1000	-1000	1000	0.1	0.01	0	0	1;
	6120	0.0	0.0	1.00	590.8500	295.4250	212.7060	0.9	0.85	1000	-1000	1000	0.1	0.01	0	0	1;
	5996	0.0	0.0	1.00	569.8500	284.9250	205.1460	0.9	0.85	1000	-1000	1000	0.1	0.01	0	0	1;
	6110	0.0	0.0	1.00	569.4000	284.7000	204.9840	0.9	0.85	1000	-1000	1000	0.1	0.01	0	0	1;
	6104	0.0	0.0	1.00	544.5000	272.2500	196.0200	0.9	0.85	1000	-1000	1000	0.1	0.01	0	0	1;
	6183	0.0	0.0	1.00	544.5000	272.2500	196.0200	0.9	0.85	1000	-1000	1000	0.1	0.01	0	0	1;
	6215	0.0	0.0	1.00	529.3500	264.6750	190.5660	0.9	0.85	1000	-1000	1000	0.1	0.01	0	0	1;
	6154	0.0	0.0	1.00	520.6500	260.3250	187.4340	0.9	0.85	1000	-1000	1000	0.1	0.01	0	0	1;
	3763	0.0	0.0	1.00	518.5500	259.2750	186.6780	0.9	0.85	1000	-1000	1000	0.1	0.01	0	0	1;
	6043	0.0	0.0	1.00	511.9500	255.9750	184.3020	0.9	0.85	1000	-1000	1000	0.1	0.01	0	0	1;
	5983	0.0	0.0	1.00	497.4000	248.7000	179.0640	0.9	0.85	1000	-1000	1000	0.1	0.01	0	0	1;
	6184	0.0	0.0	1.00	493.6500	246.8250	177.7140	0.9	0.85	1000	-1000	1000	0.1	0.01	0	0	1;
	6038	0.0	0.0	1.00	479.1000	239.5500	172.4760	0.9	0.85	1000	-1000	1000	0.1	0.01	0	0	1;
	6253	0.0	0.0	1.00	478.6500	239.3250	172.3140	0.9	0.85	1000	-1000	1000	0.1	0.01	0	0	1;
	6123	0.0	0.0	1.00	472.2000	236.1000	169.9920	0.9	0.85	1000	-1000	1000	0.1	0.01	0	0	1;
	6138	0.0	0.0	1.00	468.7500	234.3750	168.7500	0.9	0.85	1000	-1000	1000	0.1	0.01	0	0	1;
	6173	0.0	0.0	1.00	460.5000	230.2500	165.7800	0.9	0.85	1000	-1000	1000	0.1	0.01	0	0	1;
	5973	0.0	0.0	1.00	453.9000	226.9500	163.4040	0.9	0.85	1000	-1000	1000	0.1	0.01	0	0	1;
	6055	0.0	0.0	1.00	451.3500	225.6750	162.4860	0.9	0.85	1000	-1000	1000	0.1	0.01	0	0	1;
	6001	0.0	0.0	1.00	437.5500	218.7750	157.5180	0.9	0.85	1000	-1000	1000	0.1	0.01	0	0	1;
	6191	0.0	0.0	1.00	414.9000	207.4500	149.3640	0.9	0.85	1000	-1000	1000	0.1	0.01	0	0	1;
	6087	0.0	0.0	1.00	407.1000	203.5500	146.5560	0.9	0.85	1000	-1000	1000	0.1	0.01	0	0	1;
	6145	0.0	0.0	1.00	401.8500	200.9250	144.6660	0.9	0.85	1000	-1000	1000	0.1	0.01	0	0	1;
	6074	0.0	0.0	1.00	390.9000	195.4500	140.7240	0.9	0.85	1000	-1000	1000	0.1	0.01	0	0	1;
	6249	0.0	0.0	1.00	390.9000	195.4500	140.7240	0.9	0.85	1000	-1000	1000	0.1	0.01	0	0	1;
	6174	0.0	0.0	1.00	379.5000	189.7500	136.6200	0.9	0.85	1000	-1000	1000	0.1	0.01	0	0	1;
	6062	0.0	0.0	1.00	375.9000	187.9500	135.3240	0.9	0.85	1000	-1000	1000	0.1	0.01	0	0	1;
	6252	0.0	0.0	1.00	370.5000	185.2500	133.3800	0.9	0.85	1000	-1000	1000	0.1	0.01	0	0	1;
	6115	0.0	0.0	1.00	363.7500	181.8750	130.9500	0.9	0.85	1000	-1000	1000	0.1	0.01	0	0	1;
	6217	0.0	0.0	1.00	362.4000	181.2000	130.4640	0.9	0.85	1000	-1000	1000	0.1	0.01	0	0	1;
	6109	0.0	0.0	1.00	359.1000	179.5500	129.2760	0.9	0.85	1000	-1000	1000	0.1	0.01	0	0	1;
	6139	0.0	0.0	1.00	358.5000	179.2500	129.0600	0.9	0.85	1000	-1000	1000	0.1	0.01	0	0	1;
	6082	0.0	0.0	1.00	351.6000	175.8000	126.5760	0.9	0.85	1000	-1000	1000	0.1	0.01	0	0	1;
	6248	0.0	0.0	1.00	348.7500	174.3750	125.5500	0.9	0.85	1000	-1000	1000	0.1	0.01	0	0	1;
	6250	0.0	0.0	1.00	341.7000	170.8500	123.0120	0.9	0.85	1000	-1000	1000	0.1	0.01	0	0	1;
	6179	0.0	0.0	1.00	339.0000	169.5000	122.0400	0.9	0.85	1000	-1000	1000	0.1	0.01	0	0	1;
	6118	0.0	0.0	1.00	336.4500	168.2250	121.1220	0.9	0.85	1000	-1000	1000	0.1	0.01	0	0	1;
	6090	0.0	0.0	1.00	330.0000	165.0000	118.8000	0.9	0.85	1000	-1000	1000	0.1	0.01	0	0	1;
	5978	0.0	0.0	1.00	325.5000	162.7500	117.1800	0.9	0.85	1000	-1000	1000	0.1	0.01	0	0	1;
	6171	0.0	0.0	1.00	320.2500	160.1250	115.2900	0.9	0.85	1000	-1000	1000	0.1	0.01	0	0	1;
	6192	0.0	0.0	1.00	319.2000	159.6000	114.9120	0.9	0.85	1000	-1000	1000	0.1	0.01	0	0	1;
	6031	0.0	0.0	1.00	318.7500	159.3750	114.7500	0.9	0.85	1000	-1000	1000	0.1	0.01	0	0	1;
	6228	0.0	0.0	1.00	317.1000	158.5500	114.1560	0.9	0.85	1000	-1000	1000	0.1	0.01	0	0	1;
	6108	0.0	0.0	1.00	316.5000	158.2500	113.9400	0.9	0.85	1000	-1000	1000	0.1	0.01	0	0	1;
	6025	0.0	0.0	1.00	301.6500	150.8250	108.5940	0.9	0.85	1000	-1000	1000	0.1	0.01	0	0	1;
	6054	0.0	0.0	1.00	297.3000	148.6500	107.0280	0.9	0.85	1000	-1000	1000	0.1	0.01	0	0	1;
	6018	0.0	0.0	1.00	297.1500	148.5750	106.9740	0.9	0.85	1000	-1000	1000	0.1	0.01	0	0	1;
	6125	0.0	0.0	1.00	297.0000	148.5000	106.9200	0.9	0.85	1000	-1000	1000	0.1	0.01	0	0	1;
	6181	0.0	0.0	1.00	288.7500	144.3750	103.9500	0.9	0.85	1000	-1000	1000	0.1	0.01	0	0	1;
	6140	0.0	0.0	1.00	283.8000	141.9000	102.1680	0.9	0.85	1000	-1000	1000	0.1	0.01	0	0	1;
	6051	0.0	0.0	1.00	280.9500	140.4750	101.1420	0.9	0.85	1000	-1000	1000	0.1	0.01	0	0	1;
	4586	0.0	0.0	1.00	276.7500	138.3750	99.6300	0.9	0.85	1000	-1000	1000	0.1	0.01	0	0	1;
	6012	0.0	0.0	1.00	276.6000	138.3000	99.5760	0.9	0.85	1000	-1000	1000	0.1	0.01	0	0	1;
	6086	0.0	0.0	1.00	264.7500	132.3750	95.3100	0.9	0.85	1000	-1000	1000	0.1	0.01	0	0	1;
	1190	0.0	0.0	1.00	261.9000	130.9500	94.2840	0.9	0.85	1000	-1000	1000	0.1	0.01	0	0	1;
	3410	0.0	0.0	1.00	260.5500	130.2750	93.7980	0.9	0.85	1000	-1000	1000	0.1	0.01	0	0	1;
	6053	0.0	0.0	1.00	259.0500	129.5250	93.2580	0.9	0.85	1000	-1000	1000	0.1	0.01	0	0	1;
	6143	0.0	0.0	1.00	258.9000	129.4500	93.2040	0.9	0.85	1000	-1000	1000	0.1	0.01	0	0	1;
	5049	0.0	0.0	1.00	257.4000	128.7000	92.6640	0.9	0.85	1000	-1000	1000	0.1	0.01	0	0	1;
	6227	0.0	0.0	1.00	255.6000	127.8000	92.0160	0.9	0.85	1000	-1000	1000	0.1	0.01	0	0	1;
	4346	0.0	0.0	1.00	253.5000	126.7500	91.2600	0.9	0.85	1000	-1000	1000	0.1	0.01	0	0	1;
	5964	0.0	0.0	1.00	251.7000	125.8500	90.6120	0.9	0.85	1000	-1000	1000	0.1	0.01	0	0	1;
	3217	0.0	0.0	1.00	244.9500	122.4750	88.1820	0.9	0.85	1000	-1000	1000	0.1	0.01	0	0	1;
	5038	0.0	0.0	1.00	239.2500	119.6250	86.1300	0.9	0.85	1000	-1000	1000	0.1	0.01	0	0	1;
	5981	0.0	0.0	1.00	239.2500	119.6250	86.1300	0.9	0.85	1000	-1000	1000	0.1	0.01	0	0	1;
	2950	0.0	0.0	1.00	236.5500	118.2750	85.1580	0.9	0.85	1000	-1000	1000	0.1	0.01	0	0	1;
	590	0.0	0.0	1.00	231.4500	115.7250	83.3220	0.9	0.85	1000	-1000	1000	0.1	0.01	0	0	1;
	58	0.0	0.0	1.00	231.0000	115.5000	83.1600	0.9	0.85	1000	-1000	1000	0.1	0.01	0	0	1;
	6076	0.0	0.0	1.00	227.2500	113.6250	81.8100	0.9	0.85	1000	-1000	1000	0.1	0.01	0	0	1;
	4947	0.0	0.0	1.00	225.6000	112.8000	81.2160	0.9	0.85	1000	-1000	1000	0.1	0.01	0	0	1;
	5994	0.0	0.0	1.00	225.0000	112.5000	81.0000	0.9	0.85	1000	-1000	1000	0.1	0.01	0	0	1;
	6011	0.0	0.0	1.00	223.5000	111.7500	80.4600	0.9	0.85	1000	-1000	1000	0.1	0.01	0	0	1;
	6034	0.0	0.0	1.00	222.9000	111.4500	80.2440	0.9	0.85	1000	-1000	1000	0.1	0.01	0	0	1;
	1505	0.0	0.0	1.00	222.7500	111.3750	80.1900	0.9	0.85	1000	-1000	1000	0.1	0.01	0	0	1;
	5995	0.0	0.0	1.00	221.1000	110.5500	79.5960	0.9	0.85	1000	-1000	1000	0.1	0.01	0	0	1;
	3367	0.0	0.0	1.00	220.0500	110.0250	79.2180	0.9	0.85	1000	-1000	1000	0.1	0.01	0	0	1;
	3273	0.0	0.0	1.00	214.8000	107.4000	77.3280	0.9	0.85	1000	-1000	1000	0.1	0.01	0	0	1;
	6237	0.0	0.0	1.00	212.4000	106.2000	76.4640	0.9	0.85	1000	-1000	1000	0.1	0.01	0	0	1;
	6129	0.0	0.0	1.00	211.5000	105.7500	76.1400	0.9	0.85	1000	-1000	1000	0.1	0.01	0	0	1;
	1377	0.0	0.0	1.00	209.2500	104.6250	75.3300	0.9	0.85	1000	-1000	1000	0.1	0.01	0	0	1;
	3006	0.0	0.0	1.00	206.5500	103.2750	74.3580	0.9	0.85	1000	-1000	1000	0.1	0.01	0	0	1;
	4882	0.0	0.0	1.00	204.4500	102.2250	73.6020	0.9	0.85	1000	-1000	1000	0.1	0.01	0	0	1;
	4040	0.0	0.0	1.00	204.0000	102.0000	73.4400	0.9	0.85	1000	-1000	1000	0.1	0.01	0	0	1;
	1603	0.0	0.0	1.00	200.1000	100.0500	72.0360	0.9	0.85	1000	-1000	1000	0.1	0.01	0	0	1;
	2795	0.0	0.0	1.00	196.6500	98.3250	70.7940	0.9	0.85	1000	-1000	1000	0.1	0.01	0	0	1;
	4765	0.0	0.0	1.00	196.6500	98.3250	70.7940	0.9	0.85	1000	-1000	1000	0.1	0.01	0	0	1;
	4574	0.0	0.0	1.00	192.0000	96.0000	69.1200	0.9	0.85	1000	-1000	1000	0.1	0.01	0	0	1;
	6035	0.0	0.0	1.00	190.8000	95.4000	68.6880	0.9	0.85	1000	-1000	1000	0.1	0.01	0	0	1;
	3212	0.0	0.0	1.00	190.5000	95.2500	68.5800	0.9	0.85	1000	-1000	1000	0.1	0.01	0	0	1;
	6187	0.0	0.0	1.00	187.2000	93.6000	67.3920	0.9	0.85	1000	-1000	1000	0.1	0.01	0	0	1;
	6144	0.0	0.0	1.00	186.7500	93.3750	67.2300	0.9	0.85	1000	-1000	1000	0.1	0.01	0	0	1;
	6126	0.0	0.0	1.00	186.6000	93.3000	67.1760	0.9	0.85	1000	-1000	1000	0.1	0.01	0	0	1;
	2217	0.0	0.0	1.00	184.8000	92.4000	66.5280	0.9	0.85	1000	-1000	1000	0.1	0.01	0	0	1;
	3712	0.0	0.0	1.00	183.7500	91.8750	66.1500	0.9	0.85	1000	-1000	1000	0.1	0.01	0	0	1;
	6022	0.0	0.0	1.00	183.6000	91.8000	66.0960	0.9	0.85	1000	-1000	1000	0.1	0.01	0	0	1;
	5957	0.0	0.0	1.00	183.0000	91.5000	65.8800	0.9	0.85	1000	-1000	1000	0.1	0.01	0	0	1;
	6232	0.0	0.0	1.00	183.0000	91.5000	65.8800	0.9	0.85	1000	-1000	1000	0.1	0.01	0	0	1;
	131	0.0	0.0	1.00	178.9500	89.4750	64.4220	0.9	0.85	1000	-1000	1000	0.1	0.01	0	0	1;
	2693	0.0	0.0	1.00	177.6000	88.8000	63.9360	0.9	0.85	1000	-1000	1000	0.1	0.01	0	0	1;
	6157	0.0	0.0	1.00	177.0000	88.5000	63.7200	0.9	0.85	1000	-1000	1000	0.1	0.01	0	0	1;
	3163	0.0	0.0	1.00	176.1000	88.0500	63.3960	0.9	0.85	1000	-1000	1000	0.1	0.01	0	0	1;
	430	0.0	0.0	1.00	175.9500	87.9750	63.3420	0.9	0.85	1000	-1000	1000	0.1	0.01	0	0	1;
	5976	0.0	0.0	1.00	174.3000	87.1500	62.7480	0.9	0.85	1000	-1000	1000	0.1	0.01	0	0	1;
	2206	0.0	0.0	1.00	173.2500	86.6250	62.3700	0.9	0.85	1000	-1000	1000	0.1	0.01	0	0	1;
	6085	0.0	0.0	1.00	172.9500	86.4750	62.2620	0.9	0.85	1000	-1000	1000	0.1	0.01	0	0	1;
	4386	0.0	0.0	1.00	172.0500	86.0250	61.9380	0.9	0.85	1000	-1000	1000	0.1	0.01	0	0	1;
	762	0.0	0.0	1.00	171.3000	85.6500	61.6680	0.9	0.85	1000	-1000	1000	0.1	0.01	0	0	1;
	6170	0.0	0.0	1.00	171.0000	85.5000	61.5600	0.9	0.85	1000	-1000	1000	0.1	0.01	0	0	1;
	6167	0.0	0.0	1.00	169.5000	84.7500	61.0200	0.9	0.85	1000	-1000	1000	0.1	0.01	0	0	1;
	3846	0.0	0.0	1.00	168.6000	84.3000	60.6960	0.9	0.85	1000	-1000	1000	0.1	0.01	0	0	1;
	5969	0.0	0.0	1.00	167.8500	83.9250	60.4260	0.9	0.85	1000	-1000	1000	0.1	0.01	0	0	1;
	4209	0.0	0.0	1.00	167.4000	83.7000	60.2640	0.9	0.85	1000	-1000	1000	0.1	0.01	0	0	1;
	1013	0.0	0.0	1.00	167.1000	83.5500	60.1560	0.9	0.85	1000	-1000	1000	0.1	0.01	0	0	1;
	1893	0.0	0.0	1.00	166.2000	83.1000	59.8320	0.9	0.85	1000	-1000	1000	0.1	0.01	0	0	1;
	4126	0.0	0.0	1.00	164.7000	82.3500	59.2920	0.9	0.85	1000	-1000	1000	0.1	0.01	0	0	1;
	6052	0.0	0.0	1.00	164.2500	82.1250	59.1300	0.9	0.85	1000	-1000	1000	0.1	0.01	0	0	1;
	4399	0.0	0.0	1.00	161.8500	80.9250	58.2660	0.9	0.85	1000	-1000	1000	0.1	0.01	0	0	1;
	107	0.0	0.0	1.00	160.5000	80.2500	57.7800	0.9	0.85	1000	-1000	1000	0.1	0.01	0	0	1;
	4563	0.0	0.0	1.00	160.2000	80.1000	57.6720	0.9	0.85	1000	-1000	1000	0.1	0.01	0	0	1;
	789	0.0	0.0	1.00	160.0500	80.0250	57.6180	0.9	0.85	1000	-1000	1000	0.1	0.01	0	0	1;
	2436	0.0	0.0	1.00	158.7000	79.3500	57.1320	0.9	0.85	1000	-1000	1000	0.1	0.01	0	0	1;
	5961	0.0	0.0	1.00	158.4000	79.2000	57.0240	0.9	0.85	1000	-1000	1000	0.1	0.01	0	0	1;
	6220	0.0	0.0	1.00	156.4500	78.2250	56.3220	0.9	0.85	1000	-1000	1000	0.1	0.01	0	0	1;
	944	0.0	0.0	1.00	156.1500	78.0750	56.2140	0.9	0.85	1000	-1000	1000	0.1	0.01	0	0	1;
	6225	0.0	0.0	1.00	156.0000	78.0000	56.1600	0.9	0.85	1000	-1000	1000	0.1	0.01	0	0	1;
	5999	0.0	0.0	1.00	155.8500	77.9250	56.1060	0.9	0.85	1000	-1000	1000	0.1	0.01	0	0	1;
	4592	0.0	0.0	1.00	155.2500	77.6250	55.8900	0.9	0.85	1000	-1000	1000	0.1	0.01	0	0	1;
	4157	0.0	0.0	1.00	154.5000	77.2500	55.6200	0.9	0.85	1000	-1000	1000	0.1	0.01	0	0	1;
	2825	0.0	0.0	1.00	153.6000	76.8000	55.2960	0.9	0.85	1000	-1000	1000	0.1	0.01	0	0	1;
	4195	0.0	0.0	1.00	152.1000	76.0500	54.7560	0.9	0.85	1000	-1000	1000	0.1	0.01	0	0	1;
	910	0.0	0.0	1.00	151.8000	75.9000	54.6480	0.9	0.85	1000	-1000	1000	0.1	0.01	0	0	1;
	4043	0.0	0.0	1.00	151.8000	75.9000	54.6480	0.9	0.85	1000	-1000	1000	0.1	0.01	0	0	1;
	134	0.0	0.0	1.00	151.6500	75.8250	54.5940	0.9	0.85	1000	-1000	1000	0.1	0.01	0	0	1;
	3407	0.0	0.0	1.00	151.0500	75.5250	54.3780	0.9	0.85	1000	-1000	1000	0.1	0.01	0	0	1;
	3947	0.0	0.0	1.00	149.4000	74.7000	53.7840	0.9	0.85	1000	-1000	1000	0.1	0.01	0	0	1;
	4648	0.0	0.0	1.00	148.9500	74.4750	53.6220	0.9	0.85	1000	-1000	1000	0.1	0.01	0	0	1;
	3271	0.0	0.0	1.00	145.9500	72.9750	52.5420	0.9	0.85	1000	-1000	1000	0.1	0.01	0	0	1;
	2082	0.0	0.0	1.00	145.5000	72.7500	52.3800	0.9	0.85	1000	-1000	1000	0.1	0.01	0	0	1;
	3966	0.0	0.0	1.00	144.4500	72.2250	52.0020	0.9	0.85	1000	-1000	1000	0.1	0.01	0	0	1;
	3707	0.0	0.0	1.00	144.0000	72.0000	51.8400	0.9	0.85	1000	-1000	1000	0.1	0.01	0	0	1;
	2794	0.0	0.0	1.00	143.8500	71.9250	51.7860	0.9	0.85	1000	-1000	1000	0.1	0.01	0	0	1;
	686	0.0	0.0	1.00	142.8000	71.4000	51.4080	0.9	0.85	1000	-1000	1000	0.1	0.01	0	0	1;
	2682	0.0	0.0	1.00	142.6500	71.3250	51.3540	0.9	0.85	1000	-1000	1000	0.1	0.01	0	0	1;
	2210	0.0	0.0	1.00	142.2000	71.1000	51.1920	0.9	0.85	1000	-1000	1000	0.1	0.01	0	0	1;
	2256	0.0	0.0	1.00	141.9000	70.9500	51.0840	0.9	0.85	1000	-1000	1000	0.1	0.01	0	0	1;
	3085	0.0	0.0	1.00	139.5000	69.7500	50.2200	0.9	0.85	1000	-1000	1000	0.1	0.01	0	0	1;
	1269	0.0	0.0	1.00	139.0500	69.5250	50.0580	0.9	0.85	1000	-1000	1000	0.1	0.01	0	0	1;
	4103	0.0	0.0	1.00	138.6000	69.3000	49.8960	0.9	0.85	1000	-1000	1000	0.1	0.01	0	0	1;
	3565	0.0	0.0	1.00	138.0000	69.0000	49.6800	0.9	0.85	1000	-1000	1000	0.1	0.01	0	0	1;
	6112	0.0	0.0	1.00	138.0000	69.0000	49.6800	0.9	0.85	1000	-1000	1000	0.1	0.01	0	0	1;
	1093	0.0	0.0	1.00	137.7000	68.8500	49.5720	0.9	0.85	1000	-1000	1000	0.1	0.01	0	0	1;
	3127	0.0	0.0	1.00	137.5500	68.7750	49.5180	0.9	0.85	1000	-1000	1000	0.1	0.01	0	0	1;
	3881	0.0	0.0	1.00	137.2500	68.6250	49.4100	0.9	0.85	1000	-1000	1000	0.1	0.01	0	0	1;
	5025	0.0	0.0	1.00	136.0500	68.0250	48.9780	0.9	0.85	1000	-1000	1000	0.1	0.01	0	0	1;
	6013	0.0	0.0	1.00	136.0500	68.0250	48.9780	0.9	0.85	1000	-1000	1000	0.1	0.01	0	0	1;
	1690	0.0	0.0	1.00	135.4500	67.7250	48.7620	0.9	0.85	1000	-1000	1000	0.1	0.01	0	0	1;
	6096	0.0	0.0	1.00	135.4500	67.7250	48.7620	0.9	0.85	1000	-1000	1000	0.1	0.01	0	0	1;
	4643	0.0	0.0	1.00	134.5500	67.2750	48.4380	0.9	0.85	1000	-1000	1000	0.1	0.01	0	0	1;
	5960	0.0	0.0	1.00	134.2500	67.1250	48.3300	0.9	0.85	1000	-1000	1000	0.1	0.01	0	0	1;
	3528	0.0	0.0	1.00	132.6000	66.3000	47.7360	0.9	0.85	1000	-1000	1000	0.1	0.01	0	0	1;
	6019	0.0	0.0	1.00	132.1500	66.0750	47.5740	0.9	0.85	1000	-1000	1000	0.1	0.01	0	0	1;
	6093	0.0	0.0	1.00	131.7000	65.8500	47.4120	0.9	0.85	1000	-1000	1000	0.1	0.01	0	0	1;
	3735	0.0	0.0	1.00	131.2500	65.6250	47.2500	0.9	0.85	1000	-1000	1000	0.1	0.01	0	0	1;
	2523	0.0	0.0	1.00	130.5000	65.2500	46.9800	0.9	0.85	1000	-1000	1000	0.1	0.01	0	0	1;
	6021	0.0	0.0	1.00	130.5000	65.2500	46.9800	0.9	0.85	1000	-1000	1000	0.1	0.01	0	0	1;
	3653	0.0	0.0	1.00	130.3500	65.1750	46.9260	0.9	0.85	1000	-1000	1000	0.1	0.01	0	0	1;
	1161	0.0	0.0	1.00	130.2000	65.1000	46.8720	0.9	0.85	1000	-1000	1000	0.1	0.01	0	0	1;
	6000	0.0	0.0	1.00	130.2000	65.1000	46.8720	0.9	0.85	1000	-1000	1000	0.1	0.01	0	0	1;
	6033	0.0	0.0	1.00	129.9000	64.9500	46.7640	0.9	0.85	1000	-1000	1000	0.1	0.01	0	0	1;
	3710	0.0	0.0	1.00	128.8500	64.4250	46.3860	0.9	0.85	1000	-1000	1000	0.1	0.01	0	0	1;
	4853	0.0	0.0	1.00	128.8500	64.4250	46.3860	0.9	0.85	1000	-1000	1000	0.1	0.01	0	0	1;
	1433	0.0	0.0	1.00	127.8000	63.9000	46.0080	0.9	0.85	1000	-1000	1000	0.1	0.01	0	0	1;
	1832	0.0	0.0	1.00	127.6500	63.8250	45.9540	0.9	0.85	1000	-1000	1000	0.1	0.01	0	0	1;
	4672	0.0	0.0	1.00	127.2000	63.6000	45.7920	0.9	0.85	1000	-1000	1000	0.1	0.01	0	0	1;
	4030	0.0	0.0	1.00	127.0500	63.5250	45.7380	0.9	0.85	1000	-1000	1000	0.1	0.01	0	0	1;
	330	0.0	0.0	1.00	126.7500	63.3750	45.6300	0.9	0.85	1000	-1000	1000	0.1	0.01	0	0	1;
...
];

%% branch data
%	fbus	tbus	r	x	b	rateA	rateB	rateC	ratio	angle	status	angmin	angmax
mpc.branch = [
	4647	 1	 0.005726	 0.010482	 0.0	 2186	 2186	 2186	 0.0	 0.0	 1	 -30.0	 30.0;
	5244	 1	 0.01284	 0.025679	 0.0	 910	 910	 910	 0.0	 0.0	 1	 -30.0	 30.0;
	1682	 2	 0.005799	 0.010615	 0.0075	 2441	 2441	 2441	 0.0	 0.0	 1	 -30.0	 30.0;
	1673	 3	 0.134039	 0.309398	 0.0035	 91	 91	 91	 0.0	 0.0	 1	 -30.0	 30.0;
	2303	 3	 0.049131	 0.133283	 0.0015	 215	 215	 215	 0.0	 0.0	 1	 -30.0	 30.0;
	700	 4	 0.025926	 0.109136	 0.0002	 281	 281	 281	 0.0	 0.0	 1	 -30.0	 30.0;
	3939	 4	 0.05	 0.126914	 0.0006	 226	 226	 226	 0.0	 0.0	 1	 -30.0	 30.0;
	5046	 4	 0.02321	 0.097407	 0.0016	 315	 315	 315	 0.0	 0.0	 1	 -30.0	 30.0;
	4413	 5	 0.040564	 0.113631	 0.0013	 245	 245	 245	 0.0	 0.0	 1	 -30.0	 30.0;
	2779	 6	 0.006047	 0.020912	 0.0222	 1398	 1398	 1398	 0.0	 0.0	 1	 -30.0	 30.0;
	2780	 7	 0.012472	 0.032099	 0.0061	 884	 884	 884	 0.0	 0.0	 1	 -30.0	 30.0;
	2466	 8	 0.002607	 0.017462	 0.0324	 540.0	 540.0	 540.0	 0.0	 0.0	 1	 -30.0	 30.0;
	470	 9	 0.053893	 0.14258	 0.0017	 194	 194	 194	 0.0	 0.0	 1	 -30.0	 30.0;
	11	 10	 0.000247	 0.001235	 0.0005	 24078	 24078	 24078	 0.0	 0.0	 1	 -30.0	 30.0;
...